864

H       3.84      10.31       6.99
H       3.09      14.39       7.50
H       1.97       6.80       2.49
H       0.51      10.09       4.59
H       1.70      11.83       3.01
H       1.24      13.36       3.34
H       5.77       9.03       4.01
H       5.25      10.38       4.80
H      32.93      26.33       7.05
H      33.23      22.17       7.33
H      34.69      29.80       2.49
H       1.27      26.46       4.54
H      34.78      24.77       2.93
H       0.18      23.16       3.19
H      30.87      27.65       4.08
H      31.38      26.29       4.86
H      10.33      32.81      38.11
H      14.42      33.51      37.63
H       6.81      34.66      42.61
H      10.11       1.27      40.52
H      11.83       0.07      42.11
H      13.37       0.52      41.79
H       9.04      30.86      41.09
H      10.39      31.38      40.30
H      26.34       3.70      38.07
H      22.18       3.40      37.78
H      29.81       1.94      42.63
H      26.47       0.51      40.57
H      24.78       1.86      42.18
H      23.18       1.61      41.93
H      27.66       5.76      41.04
H      26.31       5.25      40.25
H      21.15       8.91      28.51
H      20.38       4.84      29.05
H      19.39      12.39      23.95
H      17.92       9.09      26.03
H      19.20       7.36      24.45
H      18.73       5.82      24.78
H      23.18      10.18      25.54
H      22.65       8.84      26.33
H      15.51      27.67      28.54
H      16.05      31.80      29.00
H      17.24      24.25      23.94
H      18.68      27.57      26.00
H      17.27      29.29      24.42
H      17.58      30.88      24.71
H      13.43      26.38      25.57
H      13.95      27.73      26.37
H      27.71      21.15      16.61
H      31.78      20.37      16.07
H      24.23      19.39      21.17
H      27.53      17.91      19.08
H      29.27      19.18      20.66
H      30.80      18.72      20.33
H      26.44      23.18      19.58
H      27.78      22.65      18.79
H       8.94      15.50      16.56
H       4.82      16.05      16.11
H      12.37      17.24      21.17
H       9.04      18.68      19.10
H       7.32      17.25      20.69
H       5.73      17.56      20.40
H      10.24      13.43      19.53
H       8.89      13.94      18.73
H       1.59      17.87       2.87
H      34.79      19.56       8.13
H       0.26      17.95       8.37
H       0.80      21.26       6.71
H       2.18      15.51       3.62
H      17.90       0.20      42.26
H      19.57       1.81      36.98
H      17.96       1.49      36.74
H      21.27       0.98      38.40
H      15.52      34.46      41.52
H      19.02       1.29      24.38
H      17.45      34.47      29.68
H      17.75       1.24      29.90
H      18.32      32.78      28.26
H      19.58       3.67      25.10
H       0.48      19.01      20.73
H       2.15      17.45      15.44
H       0.53      17.74      15.21
H       3.84      18.32      16.85
H      32.95      19.58      20.01
H       7.61      12.39      12.13
H       2.67      15.11      10.89
H       3.20      15.89      12.26
H       2.95      13.22       9.76
H       8.01      13.76      14.28
H      28.74      23.64      11.80
H      34.37      22.37      11.49
H      33.90      21.64      12.90
H      33.43      22.89       9.53
H      28.53      22.67      14.22
H      12.57      28.93      33.12
H      14.93      34.14      33.97
H      15.67      33.60      32.60
H      13.32      33.68      35.39
H      13.82      28.58      30.87
H      23.67       7.88      33.31
H      22.35       2.26      33.63
H      21.62       2.73      32.22
H      22.91       3.19      35.58
H      22.73       8.05      30.86
H       6.59       2.86       2.70
H       5.68       7.41      42.23
H       6.59       6.44      41.24
H       4.05       7.03       1.02
H       8.06       1.69       1.11
H      30.07      33.77       2.72
H      30.94      29.21      42.26
H      30.02      30.17      41.28
H      32.58      29.59       1.03
H      28.56       0.09       1.15
H       2.86      30.06      42.40
H       7.44      30.91       2.85
H       6.47      29.99       3.83
H       7.04      32.56       1.16
H       1.70      28.56       1.04
H      33.81       6.52      42.42
H      29.20       5.71       2.84
H      30.16       6.63       3.83
H      29.59       4.05       1.16
H       0.10       8.04       1.07
H      24.01      16.33      24.19
H      23.11      11.78      20.78
H      24.02      12.76      19.80
H      21.49      12.15      22.49
H      25.47      17.51      22.60
H      12.63      20.26      24.19
H      13.50      24.82      20.80
H      12.58      23.85      19.82
H      15.14      24.45      22.49
H      11.14      19.09      22.61
H      20.27      23.97      20.93
H      24.85      23.15      24.31
H      23.87      24.07      25.29
H      24.46      21.49      22.62
H      19.10      25.47      22.49
H      16.37      12.67      20.94
H      11.77      13.47      24.29
H      12.74      12.55      25.27
H      12.15      15.12      22.61
H      17.53      11.16      22.51
H      18.84      23.31       6.99
H      18.09      27.39       7.50
H      16.97      19.80       2.49
H      15.51      23.09       4.59
H      16.70      24.83       3.01
H      16.24      26.36       3.34
H      20.77      22.03       4.01
H      20.25      23.38       4.80
H      13.08       4.48       7.05
H      13.38       0.32       7.33
H      14.84       7.96       2.49
H      16.27       4.61       4.54
H      14.93       2.92       2.93
H      15.18       1.32       3.19
H      11.02       5.80       4.08
H      11.54       4.45       4.86
H      25.33      10.96      38.11
H      29.42      11.67      37.63
H      21.81      12.81      42.61
H      25.11      14.27      40.52
H      26.83      13.07      42.11
H      28.37      13.52      41.79
H      24.04       9.01      41.09
H      25.39       9.53      40.30
H       6.49      16.70      38.07
H       2.33      16.40      37.78
H       9.97      14.94      42.63
H       6.62      13.51      40.57
H       4.93      14.86      42.18
H       3.33      14.61      41.93
H       7.82      18.76      41.04
H       6.46      18.25      40.25
H       1.30      21.91      28.51
H       0.53      17.84      29.05
H      34.39      25.39      23.95
H      32.92      22.09      26.03
H      34.20      20.36      24.45
H      33.73      18.82      24.78
H       3.34      23.18      25.54
H       2.81      21.84      26.33
H      30.51       5.83      28.54
H      31.05       9.95      29.00
H      32.24       2.40      23.94
H      33.68       5.73      26.00
H      32.27       7.45      24.42
H      32.58       9.04      24.71
H      28.43       4.54      25.57
H      28.95       5.88      26.37
H       7.86      34.15      16.61
H      11.93      33.37      16.07
H       4.39      32.39      21.17
H       7.68      30.91      19.08
H       9.42      32.18      20.66
H      10.95      31.72      20.33
H       6.59       1.33      19.58
H       7.94       0.80      18.79
H      23.94      28.50      16.56
H      19.82      29.05      16.11
H      27.37      30.24      21.17
H      24.04      31.68      19.10
H      22.32      30.25      20.69
H      20.73      30.56      20.40
H      25.24      26.43      19.53
H      23.89      26.94      18.73
H      16.59      30.87       2.87
H      14.94      32.56       8.13
H      15.26      30.95       8.37
H      15.80      34.26       6.71
H      17.18      28.51       3.62
H      32.90      13.20      42.26
H      34.57      14.81      36.98
H      32.96      14.49      36.74
H       1.42      13.98      38.40
H      30.52      12.62      41.52
H      34.02      14.29      24.38
H      32.45      12.63      29.68
H      32.75      14.24      29.90
H      33.32      10.93      28.26
H      34.58      16.67      25.10
H      15.48      32.01      20.73
H      17.15      30.45      15.44
H      15.53      30.74      15.21
H      18.84      31.32      16.85
H      13.11      32.58      20.01
H      22.61      25.39      12.13
H      17.67      28.11      10.89
H      18.20      28.89      12.26
H      17.95      26.22       9.76
H      23.01      26.76      14.28
H       8.90       1.80      11.80
H      14.52       0.52      11.49
H      14.05      34.64      12.90
H      13.59       1.04       9.53
H       8.69       0.83      14.22
H      27.57       7.08      33.12
H      29.93      12.29      33.97
H      30.67      11.76      32.60
H      28.32      11.83      35.39
H      28.82       6.73      30.87
H       3.82      20.88      33.31
H       2.50      15.26      33.63
H       1.77      15.73      32.22
H       3.06      16.19      35.58
H       2.89      21.05      30.86
H      21.59      15.86       2.70
H      20.68      20.41      42.23
H      21.59      19.44      41.24
H      19.05      20.03       1.02
H      23.06      14.69       1.11
H      10.22      11.93       2.72
H      11.10       7.36      42.26
H      10.17       8.33      41.28
H      12.74       7.75       1.03
H       8.72      13.09       1.15
H      17.86       8.21      42.40
H      22.44       9.06       2.85
H      21.47       8.14       3.83
H      22.04      10.72       1.16
H      16.70       6.71       1.04
H      13.96      19.52      42.42
H       9.35      18.71       2.84
H      10.31      19.63       3.83
H       9.74      17.05       1.16
H      15.10      21.04       1.07
H       4.16      29.33      24.19
H       3.27      24.78      20.78
H       4.17      25.76      19.80
H       1.64      25.15      22.49
H       5.62      30.51      22.60
H      27.63      33.26      24.19
H      28.50       2.98      20.80
H      27.58       2.00      19.82
H      30.14       2.60      22.49
H      26.14      32.09      22.61
H       0.42       2.13      20.93
H       5.00       1.30      24.31
H       4.03       2.22      25.29
H       4.61      34.49      22.62
H      34.10       3.63      22.49
H      31.37      25.67      20.94
H      26.77      26.47      24.29
H      27.74      25.55      25.27
H      27.15      28.12      22.61
H      32.53      24.16      22.51
C       2.78      11.20       5.36
C       3.43      11.19       6.63
C       3.55      12.34       7.44
C       2.98      13.53       6.95
C       2.34      13.61       5.70
C       2.25      12.45       4.88
C       2.63       9.96       4.62
C       3.73       9.17       4.14
C       3.48       7.99       3.36
C       2.15       7.64       3.05
C       1.05       8.43       3.44
C       1.31       9.53       4.28
C      33.83      25.41       5.35
C      33.23      25.43       6.65
C      33.02      24.26       7.41
C      33.43      23.04       6.84
C      34.11      22.97       5.60
C      34.26      24.15       4.82
C      34.01      26.65       4.61
C      32.91      27.47       4.16
C      33.17      28.64       3.37
C      34.50      28.96       3.04
C       0.75      28.15       3.42
C       0.48      27.04       4.25
C      11.22      33.85      39.75
C      11.21      33.20      38.47
C      12.37      33.08      37.67
C      13.56      33.63      38.18
C      13.63      34.27      39.43
C      12.46      34.37      40.24
C       9.97      34.00      40.49
C       9.18      32.90      40.96
C       8.00      33.15      41.74
C       7.65      34.48      42.06
C       8.44       0.73      41.66
C       9.55       0.47      40.82
C      25.42       2.80      39.76
C      25.45       3.40      38.46
C      24.27       3.61      37.70
C      23.05       3.20      38.28
C      22.98       2.52      39.51
C      24.16       2.38      40.30
C      26.67       2.62      40.50
C      27.48       3.72      40.95
C      28.65       3.46      41.74
C      28.97       2.12      42.07
C      28.16       1.04      41.70
C      27.05       1.30      40.86
C      20.19       8.00      26.84
C      20.79       8.03      28.14
C      20.89       6.87      28.94
C      20.33       5.68      28.46
C      19.74       5.59      27.18
C      19.68       6.74      26.35
C      20.04       9.24      26.09
C      21.14      10.03      25.63
C      20.90      11.20      24.83
C      19.57      11.54      24.50
C      18.47      10.76      24.89
C      18.72       9.65      25.73
C      16.41      28.61      26.85
C      15.83      28.57      28.16
C      15.67      29.73      28.95
C      16.16      30.94      28.44
C      16.77      31.04      27.17
C      16.84      29.88      26.34
C      16.57      27.38      26.09
C      15.47      26.57      25.64
C      15.73      25.41      24.84
C      17.06      25.08      24.49
C      18.15      25.89      24.87
C      17.89      27.00      25.71
C      28.62      20.18      18.28
C      28.59      20.78      16.98
C      29.75      20.88      16.17
C      30.94      20.32      16.66
C      31.04      19.73      17.93
C      29.88      19.67      18.77
C      27.38      20.03      19.03
C      26.59      21.14      19.49
C      25.42      20.89      20.28
C      25.08      19.56      20.61
C      25.86      18.47      20.22
C      26.97      18.71      19.38
C       8.01      16.40      18.25
C       8.05      15.82      16.95
C       6.88      15.67      16.16
C       5.67      16.16      16.67
C       5.58      16.76      17.94
C       6.74      16.83      18.77
C       9.24      16.56      19.01
C      10.05      15.47      19.47
C      11.21      15.72      20.27
C      11.53      17.05      20.61
C      10.73      18.14      20.23
C       9.62      17.88      19.40
C       0.63      19.62       5.51
C       1.32      18.04       3.84
C       1.33      16.99       4.79
C       0.61      18.57       6.47
C       0.42      20.94       5.85
C       1.79      15.71       4.51
C      19.64       1.15      39.61
C      18.06       0.47      41.29
C      17.01       0.44      40.34
C      18.59       1.16      38.65
C      20.96       1.36      39.27
C      15.73      34.84      40.63
C      18.11      34.40      27.04
C      18.75       1.13      25.36
C      18.77       2.18      26.30
C      18.08       0.61      28.00
C      17.92      33.08      27.40
C      19.20       3.47      26.00
C       2.22      18.10      18.07
C       0.64      18.75      19.76
C      34.43      18.76      18.81
C       1.16      18.07      17.11
C       3.54      17.91      17.71
C      33.15      19.19      19.11
C       4.72      13.29      10.79
C       6.75      12.93      12.04
C       6.44      13.97      12.95
C       4.40      14.36      11.68
C       3.90      12.94       9.71
C       7.25      14.35      14.02
C      31.89      23.31      10.80
C      29.72      23.36      11.86
C      30.19      22.60      12.96
C      32.38      22.57      11.92
C      32.65      23.49       9.63
C      29.37      22.18      14.03
C      13.32      31.93      34.31
C      13.04      29.83      33.15
C      13.99      30.19      32.17
C      14.29      32.30      33.33
C      12.99      32.74      35.41
C      14.38      29.36      31.11
C      23.31       4.73      34.31
C      23.37       6.90      33.24
C      22.61       6.44      32.15
C      22.57       4.25      33.19
C      23.50       3.98      35.48
C      22.19       7.26      31.09
C       5.59       5.73       1.41
C       6.51       3.59       1.99
C       7.11       3.46       0.72
C       6.20       5.62       0.13
C       4.66       6.72       1.74
C       7.86       2.34       0.38
C      31.06      30.90       1.43
C      30.14      33.04       2.02
C      29.52      33.16       0.75
C      30.43      31.00       0.16
C      31.99      29.91       1.76
C      28.75      34.28       0.42
C       5.74      31.03       0.75
C       3.60      30.13       0.17
C       3.47      29.51       1.44
C       5.64      30.40       2.03
C       6.73      31.96       0.43
C       2.35      28.74       1.77
C      30.91       5.56       0.76
C      33.06       6.46       0.19
C      33.18       7.09       1.46
C      31.00       6.21       2.03
C      29.92       4.64       0.43
C      34.29       7.85       1.79
C      23.01      13.46      22.89
C      23.93      15.60      23.48
C      24.53      15.74      22.21
C      23.63      13.57      21.61
C      22.09      12.47      23.22
C      25.28      16.86      21.87
C      13.62      23.14      22.90
C      12.70      21.00      23.49
C      12.09      20.87      22.22
C      12.99      23.03      21.63
C      14.54      24.13      23.22
C      11.32      19.74      21.89
C      23.16      23.01      22.21
C      21.01      23.91      21.63
C      20.88      24.54      22.89
C      23.05      23.65      23.48
C      24.15      22.09      21.89
C      19.75      25.29      23.22
C      13.47      13.61      22.21
C      15.63      12.72      21.64
C      15.75      12.10      22.90
C      13.57      12.97      23.47
C      12.48      14.54      21.88
C      16.87      11.34      23.23
C      17.78      24.20       5.36
C      18.43      24.19       6.63
C      18.55      25.34       7.44
C      17.98      26.53       6.95
C      17.34      26.61       5.70
C      17.25      25.45       4.88
C      17.63      22.96       4.62
C      18.73      22.17       4.14
C      18.48      20.99       3.36
C      17.15      20.64       3.05
C      16.05      21.43       3.44
C      16.31      22.53       4.28
C      13.98       3.56       5.35
C      13.39       3.59       6.65
C      13.17       2.41       7.41
C      13.59       1.19       6.84
C      14.26       1.12       5.60
C      14.41       2.30       4.82
C      14.16       4.81       4.61
C      13.06       5.62       4.16
C      13.32       6.79       3.37
C      14.66       7.11       3.04
C      15.75       6.31       3.42
C      15.48       5.19       4.25
C      26.22      12.00      39.75
C      26.20      11.35      38.47
C      27.37      11.23      37.67
C      28.56      11.78      38.18
C      28.63      12.43      39.43
C      27.46      12.52      40.24
C      24.97      12.15      40.49
C      24.18      11.05      40.96
C      23.00      11.30      41.74
C      22.65      12.63      42.06
C      23.44      13.73      41.66
C      24.55      13.47      40.82
C       5.58      15.80      39.76
C       5.60      16.40      38.46
C       4.42      16.61      37.70
C       3.21      16.20      38.28
C       3.13      15.52      39.51
C       4.31      15.38      40.30
C       6.82      15.62      40.50
C       7.63      16.72      40.95
C       8.80      16.46      41.74
C       9.13      15.12      42.07
C       8.32      14.04      41.70
C       7.20      14.30      40.86
C       0.34      21.00      26.84
C       0.94      21.03      28.14
C       1.04      19.87      28.94
C       0.48      18.68      28.46
C      34.74      18.59      27.18
C      34.68      19.74      26.35
C       0.19      22.24      26.09
C       1.30      23.03      25.63
C       1.05      24.20      24.83
C      34.57      24.54      24.50
C      33.47      23.76      24.89
C      33.72      22.65      25.73
C      31.41       6.76      26.85
C      30.83       6.72      28.16
C      30.67       7.89      28.95
C      31.16       9.10      28.44
C      31.77       9.19      27.17
C      31.84       8.03      26.34
C      31.57       5.53      26.09
C      30.47       4.72      25.64
C      30.73       3.56      24.84
C      32.06       3.24      24.49
C      33.15       4.04      24.87
C      32.89       5.15      25.71
C       8.77      33.18      18.28
C       8.74      33.78      16.98
C       9.90      33.88      16.17
C      11.09      33.32      16.66
C      11.19      32.73      17.93
C      10.03      32.67      18.77
C       7.54      33.03      19.03
C       6.74      34.14      19.49
C       5.57      33.89      20.28
C       5.23      32.56      20.61
C       6.02      31.47      20.22
C       7.12      31.71      19.38
C      23.01      29.40      18.25
C      23.05      28.82      16.95
C      21.88      28.67      16.16
C      20.67      29.16      16.67
C      20.58      29.76      17.94
C      21.74      29.83      18.77
C      24.24      29.56      19.01
C      25.05      28.47      19.47
C      26.21      28.72      20.27
C      26.53      30.05      20.61
C      25.73      31.14      20.23
C      24.62      30.88      19.40
C      15.63      32.62       5.51
C      16.32      31.04       3.84
C      16.33      29.99       4.79
C      15.61      31.57       6.47
C      15.42      33.94       5.85
C      16.79      28.71       4.51
C      34.64      14.15      39.61
C      33.06      13.47      41.29
C      32.01      13.44      40.34
C      33.59      14.16      38.65
C       1.11      14.36      39.27
C      30.73      12.99      40.63
C      33.11      12.56      27.04
C      33.75      14.13      25.36
C      33.77      15.18      26.30
C      33.08      13.61      28.00
C      32.92      11.23      27.40
C      34.20      16.47      26.00
C      17.22      31.10      18.07
C      15.64      31.75      19.76
C      14.59      31.76      18.81
C      16.16      31.07      17.11
C      18.54      30.91      17.71
C      13.30      32.19      19.11
C      19.72      26.29      10.79
C      21.75      25.93      12.04
C      21.44      26.97      12.95
C      19.40      27.36      11.68
C      18.90      25.94       9.71
C      22.25      27.35      14.02
C      12.05       1.46      10.80
C       9.87       1.51      11.86
C      10.34       0.75      12.96
C      12.53       0.72      11.92
C      12.80       1.64       9.63
C       9.53       0.34      14.03
C      28.32      10.09      34.31
C      28.04       7.99      33.15
C      28.99       8.34      32.17
C      29.29      10.45      33.33
C      27.99      10.90      35.41
C      29.38       7.51      31.11
C       3.47      17.73      34.31
C       3.53      19.90      33.24
C       2.76      19.44      32.15
C       2.72      17.25      33.19
C       3.65      16.98      35.48
C       2.34      20.26      31.09
C      20.59      18.73       1.41
C      21.51      16.59       1.99
C      22.11      16.46       0.72
C      21.20      18.62       0.13
C      19.66      19.72       1.74
C      22.86      15.34       0.38
C      11.21       9.05       1.43
C      10.29      11.19       2.02
C       9.67      11.32       0.75
C      10.58       9.16       0.16
C      12.14       8.06       1.76
C       8.90      12.43       0.42
C      20.74       9.19       0.75
C      18.60       8.28       0.17
C      18.47       7.66       1.44
C      20.64       8.55       2.03
C      21.73      10.11       0.43
C      17.35       6.90       1.77
C      11.06      18.56       0.76
C      13.21      19.46       0.19
C      13.33      20.09       1.46
C      11.15      19.21       2.03
C      10.07      17.64       0.43
C      14.45      20.85       1.79
C       3.16      26.46      22.89
C       4.08      28.60      23.48
C       4.68      28.74      22.21
C       3.78      26.57      21.61
C       2.24      25.47      23.22
C       5.43      29.86      21.87
C      28.62       1.29      22.90
C      27.70      34.00      23.49
C      27.09      33.87      22.22
C      27.99       1.18      21.63
C      29.54       2.28      23.22
C      26.32      32.74      21.89
C       3.31       1.17      22.21
C       1.16       2.06      21.63
C       1.03       2.69      22.89
C       3.20       1.80      23.48
C       4.30       0.24      21.89
C      34.75       3.44      23.22
C      28.47      26.61      22.21
C      30.63      25.72      21.64
C      30.75      25.10      22.90
C      28.57      25.97      23.47
C      27.48      27.54      21.88
C      31.87      24.34      23.23
N       1.67      12.55       3.65
N       5.02       9.54       4.36
N      34.66       8.12       3.02
N       4.46       7.16       2.94
N       1.88      14.84       5.46
N       4.29      12.43       8.58
N      34.76      24.03       3.55
N      31.62      27.12       4.41
N       1.99      28.44       3.00
N      32.20      29.48       2.96
N      34.48      21.74       5.20
N      32.37      24.24       8.61
N      12.56       0.10      41.47
N       9.55      31.60      40.73
N       8.14       1.97      42.08
N       7.16      32.17      42.16
N      14.87      34.72      39.68
N      12.45      32.36      36.52
N      24.04       1.87      41.56
N      27.14       5.01      40.70
N      28.45      34.64      42.12
N      29.49       4.42      42.16
N      21.75       2.15      39.92
N      24.25       4.26      36.50
N      19.15       6.64      25.10
N      22.43       9.67      25.88
N      17.23      11.05      24.46
N      21.87      12.04      24.42
N      19.31       4.35      26.93
N      21.44       6.75      30.16
N      17.30      30.02      25.06
N      14.18      26.91      25.91
N      19.40      25.60      24.45
N      14.76      24.56      24.42
N      17.13      32.27      26.77
N      15.12      29.85      30.16
N      29.99      19.13      20.02
N      26.95      22.43      19.24
N      25.57      17.22      20.65
N      24.58      21.87      20.69
N      32.27      19.29      18.18
N      29.88      21.45      14.97
N       6.60      17.29      20.05
N       9.71      14.17      19.20
N      11.01      19.39      20.66
N      12.06      14.76      20.68
N       4.35      17.13      18.34
N       6.76      15.13      14.94
N       0.98      19.30       4.23
N       0.97      17.33       6.06
N       0.27      18.72       7.78
N      19.32       0.80      40.89
N      17.35       0.80      39.07
N      18.73       1.49      37.34
N      18.44      34.72      25.76
N      18.43       1.86      27.57
N      17.75       0.47      29.31
N       1.90      18.44      19.35
N      34.76      18.41      17.54
N       1.30      17.74      15.80
N       5.90      12.64      11.01
N       5.27      14.62      12.70
N       3.32      15.17      11.61
N      30.57      23.65      10.83
N      31.50      22.26      12.92
N      33.65      22.13      12.09
N      12.75      30.70      34.16
N      14.57      31.41      32.33
N      15.01      33.45      33.30
N      23.67       6.05      34.27
N      22.25       5.13      32.20
N      22.12       2.98      33.03
N       5.77       4.70       2.28
N       6.92       4.49      42.78
N       6.12       6.56      42.08
N      30.89      31.94       2.29
N      29.69      32.12      42.82
N      30.49      30.06      42.12
N       4.70      30.87      42.82
N       4.51      29.67       2.30
N       6.59      30.46       2.99
N      31.96       5.72      42.84
N      32.13       6.93       2.31
N      30.04       6.16       2.99
N      23.19      14.49      23.76
N      24.35      14.70      21.34
N      23.55      12.64      20.64
N      13.45      22.10      23.76
N      12.26      21.90      21.36
N      13.05      23.97      20.66
N      22.11      23.17      21.35
N      21.92      24.37      23.75
N      24.00      23.59      24.45
N      14.52      13.46      21.35
N      14.70      12.25      23.75
N      12.62      13.02      24.43
N      16.67      25.55       3.65
N      20.02      22.54       4.36
N      14.81      21.12       3.02
N      19.46      20.16       2.94
N      16.88      27.84       5.46
N      19.29      25.43       8.58
N      14.92       2.18       3.55
N      11.77       5.27       4.41
N      16.99       6.59       3.00
N      12.36       7.63       2.96
N      14.63      34.74       5.20
N      12.52       2.39       8.61
N      27.56      13.10      41.47
N      24.55       9.76      40.73
N      23.14      14.97      42.08
N      22.16      10.33      42.16
N      29.87      12.88      39.68
N      27.45      10.51      36.52
N       4.19      14.87      41.56
N       7.29      18.01      40.70
N       8.61      12.79      42.12
N       9.65      17.42      42.16
N       1.90      15.15      39.92
N       4.40      17.26      36.50
N      34.15      19.64      25.10
N       2.59      22.67      25.88
N      32.23      24.05      24.46
N       2.02      25.04      24.42
N      34.31      17.35      26.93
N       1.59      19.75      30.16
N      32.30       8.17      25.06
N      29.18       5.06      25.91
N      34.40       3.76      24.45
N      29.76       2.71      24.42
N      32.13      10.43      26.77
N      30.12       8.01      30.16
N      10.14      32.13      20.02
N       7.10       0.58      19.24
N       5.72      30.22      20.65
N       4.73       0.02      20.69
N      12.42      32.29      18.18
N      10.03      34.45      14.97
N      21.60      30.29      20.05
N      24.71      27.17      19.20
N      26.01      32.39      20.66
N      27.06      27.76      20.68
N      19.35      30.13      18.34
N      21.76      28.13      14.94
N      15.98      32.30       4.23
N      15.97      30.33       6.06
N      15.27      31.72       7.78
N      34.32      13.80      40.89
N      32.35      13.80      39.07
N      33.73      14.49      37.34
N      33.44      12.87      25.76
N      33.43      14.86      27.57
N      32.75      13.47      29.31
N      16.90      31.44      19.35
N      14.92      31.41      17.54
N      16.30      30.74      15.80
N      20.90      25.64      11.01
N      20.27      27.62      12.70
N      18.32      28.17      11.61
N      10.72       1.80      10.83
N      11.65       0.41      12.92
N      13.80       0.28      12.09
N      27.75       8.85      34.16
N      29.57       9.56      32.33
N      30.01      11.60      33.30
N       3.82      19.05      34.27
N       2.41      18.13      32.20
N       2.27      15.98      33.03
N      20.77      17.70       2.28
N      21.92      17.49      42.78
N      21.12      19.56      42.08
N      11.04      10.09       2.29
N       9.85      10.28      42.82
N      10.65       8.21      42.12
N      19.70       9.03      42.82
N      19.51       7.82       2.30
N      21.59       8.61       2.99
N      12.11      18.72      42.84
N      12.28      19.93       2.31
N      10.20      19.16       2.99
N       3.34      27.49      23.76
N       4.50      27.70      21.34
N       3.71      25.64      20.64
N      28.45       0.25      23.76
N      27.26       0.06      21.36
N      28.05       2.13      20.66
N       2.27       1.32      21.35
N       2.07       2.53      23.75
N       4.15       1.75      24.45
N      29.52      26.46      21.35
N      29.70      25.25      23.75
N      27.62      26.02      24.43
