22

C       8.60       5.95      12.15
C       6.13       2.79      16.21
C       4.11       6.22      16.00
C       8.60       6.00      16.04
C       6.20       2.17      12.20
C       4.12       6.21      12.16
Cr       6.33       6.79      14.08
Cr       8.02       3.79      14.13
Cr       4.59       3.82      14.10
O       4.95       7.07      12.55
O       7.69       6.66      12.70
O       6.31       4.80      14.10
O       8.96       4.86      15.63
O       7.23       2.68      15.53
O       5.02       2.47      15.62
O       4.01       5.06      15.47
O       4.93       7.10      15.56
O       7.67       6.68      15.49
O       8.98       4.84      12.62
O       7.25       2.66      12.74
O       5.04       2.45      12.61
O       4.03       5.04      12.68
