960

H       6.44      12.81      13.17
H       6.25      16.33      10.91
H       1.97       8.75      13.89
H       2.97      11.37      10.85
H       2.51      13.59      10.04
H       4.23      12.75      15.32
H      10.34      20.29      29.50
H      10.53      16.77      27.24
H      14.83      24.35      30.19
H      13.82      21.71      27.17
H      14.28      19.49      26.37
H      12.55      20.37      31.65
H      26.65      29.13       3.61
H      26.83      32.64       5.87
H      31.13      25.06       2.91
H      30.12      27.70       5.94
H      30.59      29.91       6.74
H      28.86      29.05       1.46
H      22.76       3.97      19.92
H      22.59       0.46      22.18
H      18.26       8.03      19.24
H      19.28       5.38      22.26
H      18.82       3.16      23.04
H      20.55       4.06      17.77
H      13.18       6.44      12.81
H      10.91       6.25      16.33
H      13.89       1.97       8.75
H      10.85       2.97      11.38
H      10.04       2.51      13.59
H      15.32       4.23      12.74
H      29.50      10.34      20.30
H      27.24      10.51      16.78
H      30.19      14.83      24.35
H      27.17      13.82      21.71
H      26.37      14.28      19.49
H      31.65      12.54      20.38
H       3.61      26.66      29.13
H       5.87      26.85       0.00
H       2.90      31.13      25.06
H       5.94      30.13      27.69
H       6.74      30.59      29.91
H       1.46      28.87      29.06
H      19.93      22.76       3.97
H      22.18      22.58       0.45
H      19.22      18.29       8.03
H      22.25      19.28       5.39
H      23.05      18.82       3.17
H      17.77      20.56       4.04
H      12.81      13.18       6.44
H      16.32      10.91       6.26
H       8.75      13.87       1.95
H      11.38      10.84       2.97
H      13.60      10.05       2.51
H      12.73      15.33       4.23
H      20.29      29.49      10.34
H      16.78      27.23      10.52
H      24.35      30.19      14.82
H      21.71      27.17      13.82
H      19.49      26.37      14.28
H      20.37      31.65      12.55
H      29.13       3.62      26.65
H       0.00       5.87      26.84
H      25.06       2.90      31.12
H      27.69       5.94      30.12
H      29.91       6.74      30.59
H      29.06       1.47      28.86
H       3.96      19.92      22.76
H       0.44      22.17      22.57
H       8.03      19.22      18.28
H       5.39      22.25      19.28
H       3.17      23.04      18.82
H       4.04      17.77      20.55
H       4.88      14.63      28.46
H       8.17      13.99      30.95
H       0.71      10.57      26.77
H       3.34      10.76      29.98
H       5.53      10.10      30.74
H       4.85      12.92      25.94
H      11.90      18.48      12.13
H       8.60      19.11      14.61
H      16.08      22.52      10.47
H      13.44      22.33      13.67
H      11.25      23.00      14.42
H      11.93      20.21       9.61
H      21.19       2.15       4.65
H      24.49       2.79       2.15
H      17.01       6.19       6.31
H      19.64       6.00       3.10
H      21.83       6.66       2.33
H      21.17       3.90       7.16
H      28.24      30.95      20.97
H      24.93      30.33      18.49
H      32.41      26.90      22.62
H      29.77      27.10      19.42
H      27.57      26.44      18.67
H      28.27      29.20      23.49
H      30.95      20.96      28.23
H      30.33      18.48      24.93
H      26.89      22.63      32.40
H      27.09      19.43      29.76
H      26.43      18.68      27.56
H      29.22      23.48      28.26
H       2.15       4.65      21.19
H       2.78       2.16      24.49
H       6.19       6.29      17.00
H       5.99       3.09      19.64
H       6.66       2.33      21.83
H       3.91       7.17      21.16
H      18.48      12.13      11.90
H      19.11      14.63       8.61
H      22.54      10.44      16.06
H      22.34      13.65      13.43
H      23.00      14.42      11.24
H      20.18       9.62      11.92
H      14.63      28.45       4.87
H      14.00      30.94       8.17
H      10.58      26.78       0.70
H      10.77      29.99       3.33
H      10.11      30.75       5.52
H      12.90      25.94       4.84
H       4.65      21.20       2.15
H       2.15      24.49       2.78
H       6.33      17.03       6.20
H       3.11      19.66       6.01
H       2.35      21.85       6.67
H       7.16      21.17       3.87
H      20.97      28.24      30.95
H      18.49      24.93      30.33
H      22.62      32.42      26.91
H      19.42      29.77      27.10
H      18.67      27.58      26.44
H      23.49      28.27      29.20
H      28.45       4.88      14.63
H      30.95       8.17      13.99
H      26.77       0.70      10.58
H      29.99       3.33      10.77
H      30.76       5.52      10.11
H      25.94       4.85      12.90
H      12.14      11.90      18.47
H      14.61       8.60      19.11
H      10.46      16.07      22.52
H      13.67      13.44      22.34
H      14.41      11.24      23.00
H       9.61      11.93      20.20
H       7.48      15.39      15.94
H       6.58      14.46      14.91
H       9.15      16.87      15.20
H       9.29      17.72      32.27
H      10.19      18.65      31.25
H       7.62      16.23      31.53
H      25.62      31.71       0.84
H      26.51      30.78       1.86
H      23.95       0.55       1.58
H      23.83       1.41      17.15
H      22.93       2.34      18.17
H      25.49      32.56      17.90
H      15.95       7.50      15.38
H      14.93       6.59      14.45
H      15.20       9.16      16.87
H      32.26       9.30      17.71
H      31.24      10.19      18.65
H      31.52       7.63      16.22
H       0.84      25.62      31.71
H       1.86      26.52      30.78
H       1.58      23.95       0.55
H      17.16      23.83       1.41
H      18.18      22.93       2.33
H      17.90      25.50      32.56
H      15.38      15.95       7.49
H      14.45      14.93       6.60
H      16.87      15.21       9.15
H      17.72      32.26       9.29
H      18.65      31.24      10.19
H      16.23      31.52       7.62
H      31.71       0.85      25.62
H      30.78       1.87      26.52
H       0.55       1.59      23.95
H       1.41      17.15      23.84
H       2.33      18.17      22.92
H      32.56      17.90      25.50
H      23.28      32.08      32.12
H      22.45      31.16      31.04
H      25.18       0.69      31.53
H      26.19       0.98      15.78
H      27.00       1.93      14.70
H      24.28      32.39      15.21
H       9.86      15.78      17.32
H      10.68      14.85      18.39
H       7.95      17.02      17.89
H       6.89      17.30       1.00
H       6.08      18.25       2.08
H       8.80      16.07       1.56
H      32.10      23.24      32.11
H      31.03      22.42      31.18
H      31.53      25.14       0.71
H      15.78      26.19       0.98
H      14.70      27.01       1.92
H      15.22      24.28      32.40
H      17.34       9.93      15.84
H      18.42      10.73      14.88
H      17.89       8.00      17.05
H       0.97       6.99      17.37
H       2.05       6.15      18.29
H       1.57       8.88      16.11
H      32.08      32.12      23.28
H      31.16      31.04      22.44
H       0.69      31.53      25.18
H       0.96      15.77      26.23
H       1.91      14.69      27.04
H      32.38      15.22      24.31
H      15.78      17.32       9.86
H      14.85      18.39      10.68
H      17.02      17.89       7.95
H      17.36       0.98       6.97
H      18.28       2.05       6.13
H      16.10       1.57       8.86
H      31.52      11.80      11.61
H       0.51      12.01      11.64
H      30.50       9.65      11.61
H      17.93      21.29      27.96
H      16.29      21.08      27.97
H      18.95      23.44      27.97
H       1.58      28.12       5.15
H      32.58      28.33       5.14
H       2.60      25.98       5.14
H      15.17       4.95      21.46
H      16.81       4.75      21.45
H      14.15       7.10      21.46
H      11.61      31.51      11.80
H      11.64       0.51      12.01
H      11.62      30.49       9.65
H      27.96      17.93      21.28
H      27.97      16.29      21.07
H      27.97      18.95      23.43
H       5.15       1.58      28.12
H       5.14      32.58      28.33
H       5.14       2.60      25.98
H      21.46      15.18       4.96
H      21.43      16.82       4.76
H      21.47      14.16       7.11
H      11.82      11.61      31.50
H      12.02      11.63       0.50
H       9.67      11.63      30.48
H      21.29      27.96      17.92
H      21.08      27.97      16.28
H      23.44      27.97      18.94
H      28.11       5.15       1.57
H      28.32       5.14      32.58
H      25.97       5.14       2.60
H       4.96      21.47      15.18
H       4.76      21.44      16.82
H       7.11      21.47      14.16
H       3.63       6.90      29.05
H       3.88       8.52      28.85
H       1.46       5.94      29.15
H      13.15      26.20      12.69
H      12.90      24.57      12.51
H      15.32      27.16      12.80
H      19.94       9.86       4.09
H      20.19       8.24       4.27
H      17.78      10.83       3.99
H      29.46      23.24      20.40
H      29.22      24.86      20.58
H      31.62      22.26      20.29
H      23.23      20.39      29.46
H      24.85      20.58      29.21
H      22.26      20.29      31.63
H       9.85       4.08      19.94
H       8.23       4.26      20.19
H      10.82       3.97      17.78
H      26.21      12.71      13.15
H      24.59      12.51      12.89
H      27.16      12.81      15.32
H       6.91      29.04       3.62
H       8.53      28.84       3.87
H       5.95      29.14       1.46
H       4.05      19.95       9.87
H       4.25      20.20       8.25
H       3.95      17.78      10.83
H      20.42      29.47      23.24
H      20.58      29.23      24.86
H      20.31      31.63      22.27
H      29.02       3.62       6.91
H      28.83       3.87       8.53
H      29.12       1.45       5.95
H      12.71      13.14      26.19
H      12.51      12.89      24.57
H      12.81      15.31      27.16
C       4.58      13.08      12.19
C       5.91      13.44      12.57
C       6.54      14.65      12.15
C       5.82      15.46      11.25
C       4.53      15.15      10.79
C       3.91      13.97      11.28
C       3.93      11.86      12.69
C       4.06      11.37      14.04
C       3.36      10.21      14.51
C       2.49       9.58      13.60
C       2.30      10.01      12.27
C       3.07      11.11      11.83
C      12.21      20.02      28.52
C      10.88      19.66      28.90
C      10.24      18.45      28.48
C      10.96      17.64      27.58
C      12.25      17.94      27.13
C      12.88      19.12      27.61
C      12.86      21.24      29.01
C      12.73      21.73      30.36
C      13.44      22.89      30.83
C      14.31      23.52      29.90
C      14.50      23.07      28.58
C      13.73      21.98      28.15
C      28.52      29.39       4.59
C      27.18      29.75       4.21
C      26.55      30.96       4.63
C      27.27      31.77       5.53
C      28.56      31.46       5.98
C      29.18      30.28       5.50
C      29.17      28.17       4.09
C      29.04      27.68       2.75
C      29.74      26.52       2.28
C      30.61      25.89       3.20
C      30.80      26.34       4.52
C      30.03      27.43       4.96
C      20.89       3.70      20.90
C      22.23       3.34      20.52
C      22.87       2.14      20.94
C      22.15       1.32      21.84
C      20.85       1.63      22.29
C      20.23       2.80      21.81
C      20.24       4.92      20.41
C      20.37       5.42      19.06
C      19.66       6.58      18.60
C      18.78       7.19      19.52
C      18.59       6.74      20.84
C      19.37       5.65      21.28
C      12.19       4.57      13.08
C      12.58       5.90      13.44
C      12.16       6.54      14.65
C      11.25       5.82      15.46
C      10.80       4.53      15.15
C      11.28       3.91      13.97
C      12.69       3.93      11.86
C      14.04       4.05      11.37
C      14.51       3.35      10.21
C      13.59       2.48       9.58
C      12.27       2.29      10.02
C      11.83       3.07      11.11
C      28.52      12.21      20.02
C      28.90      10.87      19.67
C      28.48      10.23      18.46
C      27.58      10.94      17.65
C      27.13      12.24      17.95
C      27.61      12.87      19.13
C      29.01      12.86      21.24
C      30.36      12.73      21.74
C      30.82      13.44      22.90
C      29.90      14.31      23.52
C      28.58      14.51      23.07
C      28.15      13.73      21.98
C       4.59      28.52      29.40
C       4.21      27.19      29.76
C       4.63      26.56      30.97
C       5.53      27.28      31.78
C       5.98      28.57      31.47
C       5.50      29.19      30.29
C       4.09      29.17      28.17
C       2.75      29.04      27.68
C       2.28      29.74      26.53
C       3.19      30.61      25.89
C       4.52      30.80      26.33
C       4.96      30.03      27.43
C      20.90      20.89       3.69
C      20.52      22.23       3.34
C      20.94      22.86       2.13
C      21.84      22.14       1.31
C      22.29      20.85       1.62
C      21.81      20.22       2.80
C      20.41      20.24       4.92
C      19.06      20.37       5.41
C      18.59      19.67       6.57
C      19.51      18.80       7.20
C      20.83      18.60       6.75
C      21.27      19.38       5.66
C      13.08      12.20       4.57
C      13.44      12.58       5.91
C      14.64      12.16       6.55
C      15.45      11.25       5.83
C      15.14      10.80       4.53
C      13.97      11.29       3.91
C      11.85      12.69       3.92
C      11.36      14.04       4.05
C      10.20      14.50       3.34
C       9.58      13.58       2.47
C      10.02      12.26       2.28
C      11.12      11.83       3.06
C      20.02      28.52      12.21
C      19.66      28.89      10.87
C      18.46      28.48      10.23
C      17.65      27.57      10.95
C      17.95      27.12      12.25
C      19.13      27.61      12.87
C      21.24      29.01      12.86
C      21.74      30.36      12.73
C      22.89      30.82      13.43
C      23.52      29.90      14.30
C      23.07      28.58      14.50
C      21.98      28.15      13.72
C      29.39       4.60      28.52
C      29.76       4.22      27.19
C      30.96       4.63      26.55
C      31.78       5.53      27.27
C      31.47       5.99      28.57
C      30.29       5.50      29.19
C      28.17       4.10      29.17
C      27.68       2.75      29.04
C      26.53       2.28      29.74
C      25.89       3.20      30.61
C      26.33       4.52      30.80
C      27.43       4.96      30.03
C       3.69      20.90      20.89
C       3.33      20.52      22.22
C       2.13      20.94      22.86
C       1.31      21.84      22.14
C       1.62      22.29      20.84
C       2.80      21.80      20.22
C       4.92      20.40      20.24
C       5.41      19.06      20.37
C       6.57      18.59      19.67
C       7.20      19.51      18.80
C       6.75      20.83      18.60
C       5.66      21.27      19.38
C       5.09      12.60      29.06
C       5.46      13.98      28.99
C       6.58      14.53      29.68
C       7.34      13.64      30.46
C       7.06      12.27      30.57
C       5.93      11.75      29.87
C       3.89      12.08      28.40
C       3.43      12.52      27.12
C       2.22      12.03      26.53
C       1.56      10.97      27.19
C       1.99      10.45      28.43
C       3.10      11.07      29.04
C      11.68      20.51      12.74
C      11.32      19.12      12.67
C      10.20      18.57      13.35
C       9.43      19.47      14.13
C       9.72      20.84      14.24
C      10.84      21.35      13.54
C      12.89      21.02      12.08
C      13.36      20.58      10.80
C      14.57      21.07      10.22
C      15.23      22.12      10.89
C      14.80      22.64      12.12
C      13.68      22.02      12.73
C      21.40       4.18       4.03
C      21.77       2.80       4.11
C      22.89       2.25       3.42
C      23.66       3.14       2.64
C      23.37       4.51       2.52
C      22.24       5.02       3.22
C      20.20       4.70       4.69
C      19.74       4.26       5.98
C      18.52       4.74       6.55
C      17.86       5.79       5.89
C      18.29       6.31       4.65
C      19.41       5.69       4.04
C      28.02      28.92      20.35
C      27.65      30.31      20.43
C      26.53      30.86      19.75
C      25.76      29.97      18.97
C      26.05      28.60      18.86
C      27.17      28.08      19.55
C      29.22      28.40      21.01
C      29.69      28.84      22.29
C      30.91      28.36      22.87
C      31.57      27.30      22.20
C      31.13      26.78      20.97
C      30.01      27.40      20.36
C      28.92      20.36      28.01
C      30.31      20.43      27.65
C      30.86      19.75      26.53
C      29.97      18.97      25.76
C      28.59      18.86      26.04
C      28.08      19.56      27.16
C      28.40      21.02      29.21
C      28.84      22.30      29.68
C      28.35      22.88      30.90
C      27.30      22.21      31.55
C      26.78      20.98      31.12
C      27.40      20.37      30.00
C       4.18       4.03      21.40
C       2.79       4.11      21.77
C       2.25       3.43      22.90
C       3.14       2.65      23.66
C       4.51       2.53      23.37
C       5.02       3.23      22.24
C       4.69       4.69      20.20
C       4.26       5.97      19.73
C       4.74       6.55      18.51
C       5.79       5.88      17.85
C       6.30       4.64      18.29
C       5.69       4.04      19.40
C      20.51      12.74      11.68
C      19.12      12.67      11.32
C      18.57      13.36      10.20
C      19.46      14.14       9.43
C      20.84      14.24       9.72
C      21.35      13.54      10.84
C      21.03      12.07      12.88
C      20.58      10.79      13.35
C      21.07      10.21      14.56
C      22.13      10.86      15.21
C      22.66      12.10      14.78
C      22.04      12.71      13.67
C      12.60      29.07       5.09
C      13.98      28.99       5.45
C      14.53      29.67       6.57
C      13.64      30.46       7.34
C      12.27      30.57       7.05
C      11.76      29.87       5.92
C      12.08      28.40       3.88
C      12.52      27.12       3.42
C      12.04      26.54       2.20
C      10.98      27.20       1.54
C      10.46      28.43       1.98
C      11.08      29.04       3.09
C       4.03      21.41       4.18
C       4.11      21.78       2.80
C       3.42      22.90       2.25
C       2.64      23.66       3.14
C       2.53      23.37       4.51
C       3.23      22.25       5.02
C       4.70      20.21       4.70
C       5.98      19.75       4.26
C       6.56      18.53       4.74
C       5.90      17.87       5.80
C       4.67      18.31       6.32
C       4.06      19.42       5.70
C      20.35      28.02      28.92
C      20.43      27.65      30.31
C      19.75      26.53      30.86
C      18.98      25.76      29.97
C      18.86      26.05      28.60
C      19.55      27.17      28.08
C      21.01      29.22      28.40
C      22.30      29.69      28.84
C      22.87      30.91      28.36
C      22.20      31.57      27.31
C      20.97      31.13      26.79
C      20.36      30.01      27.41
C      29.07       5.09      12.60
C      28.99       5.46      13.98
C      29.68       6.57      14.53
C      30.46       7.34      13.64
C      30.58       7.05      12.27
C      29.87       5.92      11.76
C      28.40       3.89      12.08
C      27.12       3.42      12.52
C      26.53       2.21      12.04
C      27.20       1.55      10.98
C      28.43       1.98      10.46
C      29.04       3.09      11.08
C      12.74      11.68      20.51
C      12.67      11.32      19.12
C      13.35      10.20      18.57
C      14.12       9.43      19.46
C      14.23       9.71      20.84
C      13.54      10.84      21.35
C      12.08      12.89      21.02
C      10.80      13.36      20.58
C      10.22      14.57      21.06
C      10.88      15.23      22.12
C      12.11      14.79      22.65
C      12.72      13.68      22.03
C       9.69      17.23      13.19
C       9.03      16.54      14.24
C       8.04      15.55      13.98
C       7.80      15.18      12.62
C       7.08      15.88      29.52
C       7.74      16.57      30.57
C       8.73      17.55      30.31
C       8.98      17.92      28.95
C      23.40       0.90       3.58
C      24.07       0.21       2.54
C      25.05      31.87       2.80
C      25.29      31.50       4.16
C      26.03      32.21      19.91
C      25.37       0.26      18.86
C      24.38       1.24      19.11
C      24.13       1.61      20.47
C      13.19       9.70      17.23
C      14.24       9.04      16.53
C      13.99       8.05      15.55
C      12.63       7.80      15.18
C      29.52       7.08      15.88
C      30.57       7.75      16.56
C      30.31       8.73      17.56
C      28.95       8.97      17.93
C       3.58      23.41       0.90
C       2.54      24.07       0.21
C       2.80      25.06      31.87
C       4.16      25.30      31.51
C      19.91      26.03      32.21
C      18.86      25.37       0.26
C      19.12      24.38       1.24
C      20.47      24.13       1.60
C      17.22      13.20       9.70
C      16.53      14.25       9.04
C      15.54      13.99       8.05
C      15.17      12.64       7.80
C      15.88      29.51       7.08
C      16.57      30.56       7.74
C      17.56      30.30       8.73
C      17.92      28.95       8.97
C       0.90       3.59      23.40
C       0.21       2.55      24.07
C      31.87       2.81      25.05
C      31.50       4.16      25.30
C      32.20      19.90      26.03
C       0.26      18.85      25.37
C       1.24      19.11      24.38
C       1.59      20.47      24.12
C      25.89       0.98      29.56
C      25.12       0.35      30.57
C      24.12      32.04      30.25
C      24.02      31.59      28.90
C      23.53      32.12      13.25
C      24.32       0.10      14.25
C      25.32       1.06      13.93
C      25.39       1.53      12.59
C       7.21      17.30      19.85
C       8.00      16.67      18.85
C       9.00      15.71      19.17
C       9.07      15.25      20.51
C       9.56      15.80       3.52
C       8.76      16.42       2.52
C       7.77      17.38       2.84
C       7.71      17.85       4.19
C      29.57      25.88       0.99
C      30.57      25.09       0.36
C      30.25      24.10      32.05
C      28.91      24.02      31.58
C      13.26      23.53      32.12
C      14.26      24.33       0.10
C      13.93      25.32       1.06
C      12.59      25.39       1.52
C      19.84       7.22      17.31
C      18.84       8.04      16.70
C      19.17       9.03      15.73
C      20.51       9.07      15.25
C       3.54       9.58      15.81
C       2.53       8.81      16.45
C       2.85       7.81      17.40
C       4.20       7.71      17.84
C       0.98      29.56      25.89
C       0.35      30.57      25.12
C      32.03      30.25      24.12
C      31.59      28.90      24.02
C      32.11      13.26      23.54
C       0.09      14.26      24.35
C       1.05      13.93      25.34
C       1.53      12.59      25.39
C      17.30      19.85       7.21
C      16.67      18.85       8.00
C      15.71      19.17       8.99
C      15.25      20.52       9.07
C      15.81       3.53       9.58
C      16.44       2.53       8.80
C      17.40       2.84       7.80
C      17.85       4.19       7.71
C      31.53       7.82      11.53
C      31.42       9.23      11.48
C      32.57      10.05      11.51
C       1.21       9.42      11.54
C      17.91      25.27      27.87
C      18.03      23.86      27.82
C      16.87      23.03      27.84
C      15.59      23.66      27.85
C       1.57      24.14       5.24
C       1.68      25.55       5.29
C       0.52      26.38       5.27
C      31.89      25.74       5.25
C      15.17       8.93      21.57
C      15.07       7.52      21.62
C      16.22       6.70      21.59
C      17.50       7.33      21.57
C      11.54      31.52       7.82
C      11.49      31.41       9.23
C      11.51      32.57      10.05
C      11.54       1.20       9.43
C      27.86      17.91      25.26
C      27.82      18.03      23.85
C      27.84      16.88      23.03
C      27.85      15.59      23.65
C       5.24       1.57      24.14
C       5.29       1.68      25.55
C       5.26       0.52      26.37
C       5.24      31.89      25.74
C      21.57      15.19       8.94
C      21.62      15.08       7.53
C      21.58      16.24       6.71
C      21.56      17.52       7.34
C       7.84      11.53      31.51
C       9.24      11.48      31.40
C      10.07      11.51      32.56
C       9.44      11.53       1.19
C      25.27      27.87      17.91
C      23.86      27.82      18.02
C      23.04      27.84      16.87
C      23.66      27.85      15.58
C      24.14       5.24       1.56
C      25.54       5.29       1.68
C      26.37       5.27       0.52
C      25.74       5.25      31.88
C       8.94      21.57      15.19
C       7.53      21.62      15.08
C       6.71      21.59      16.24
C       7.34      21.56      17.52
C      32.30       7.02      29.10
C       1.06       6.88      29.18
C       1.91       8.01      29.07
C       1.31       9.30      28.95
C      17.13      26.08      12.77
C      15.72      26.22      12.84
C      14.87      25.08      12.75
C      15.47      23.80      12.64
C      15.97       9.75       4.01
C      17.37       9.89       3.94
C      18.22       8.75       4.03
C      17.61       7.47       4.14
C       0.79      23.33      20.32
C      32.03      23.20      20.25
C      31.19      24.34      20.34
C      31.80      25.62      20.45
C      23.33      20.32       0.79
C      23.20      20.25      32.03
C      24.33      20.35      31.18
C      25.62      20.46      31.79
C       9.75       4.00      15.97
C       9.88       3.93      17.38
C       8.75       4.02      18.22
C       7.46       4.13      17.62
C      26.08      12.76      17.12
C      26.22      12.84      15.72
C      25.09      12.74      14.86
C      23.81      12.61      15.46
C       7.03      29.10      32.29
C       6.89      29.18       1.05
C       8.02      29.07       1.90
C       9.31      28.95       1.30
C       4.00      15.98       9.76
C       3.92      17.38       9.89
C       4.02      18.23       8.76
C       4.15      17.63       7.48
C      20.33       0.80      23.34
C      20.27      32.04      23.21
C      20.35      31.19      24.34
C      20.45      31.80      25.63
C      29.08      32.29       7.03
C      29.16       1.05       6.89
C      29.06       1.90       8.02
C      28.95       1.30       9.31
C      12.78      17.12      26.09
C      12.85      15.71      26.22
C      12.75      14.86      25.09
C      12.63      15.47      23.80
N       8.58      15.82      11.69
N       9.44      16.77      11.94
N       7.31      15.09      15.03
N       8.20      17.28      28.02
N       7.33      16.33      28.27
N       9.47      18.01      31.36
N      24.51      32.13       5.09
N      23.64       0.44       4.84
N      25.79      31.41       1.75
N      24.90       0.97      21.41
N      25.77       0.02      21.16
N      23.65       1.70      18.06
N      11.70       8.57      15.82
N      11.94       9.44      16.77
N      15.04       7.32      15.09
N      28.02       8.19      17.30
N      28.27       7.32      16.34
N      31.35       9.47      18.01
N       5.09      24.52      32.14
N       4.84      23.65       0.45
N       1.75      25.80      31.41
N      21.41      24.90       0.96
N      21.16      25.77       0.01
N      18.07      23.65       1.70
N      15.81      11.70       8.58
N      16.77      11.95       9.45
N      15.08      15.04       7.31
N      17.29      28.01       8.19
N      16.34      28.26       7.33
N      18.02      31.35       9.47
N      32.14       5.09      24.52
N       0.44       4.84      23.65
N      31.41       1.76      25.79
N       0.95      21.40      24.89
N       0.01      21.16      25.76
N       1.70      18.06      23.65
N      24.89      32.17      28.02
N      25.74       0.48      28.31
N      23.23      31.69      31.23
N      24.51       0.95      11.71
N      23.66      32.64      12.01
N      26.22       1.39      14.90
N       8.20      15.83      21.39
N       7.34      16.78      21.10
N       9.90      15.38      18.20
N       8.59      17.28       5.06
N       9.44      16.32       4.76
N       6.85      17.70       1.89
N      28.02      24.90      32.16
N      28.32      25.75       0.47
N      31.22      23.20      31.71
N      11.71      24.51       0.95
N      12.01      23.66      32.64
N      14.90      26.23       1.39
N      21.38       8.17      15.81
N      21.08       7.33      16.77
N      18.22       9.95      15.42
N       5.08       8.57      17.25
N       4.79       9.42      16.30
N       1.87       6.93      17.75
N      32.17      28.02      24.89
N       0.48      28.31      25.74
N      31.69      31.23      23.23
N       0.96      11.72      24.50
N       0.00      12.02      23.66
N       1.37      14.89      26.26
N      15.83      21.40       8.20
N      16.78      21.10       7.34
N      15.38      18.21       9.90
N      17.26       5.08       8.57
N      16.31       4.78       9.43
N      17.74       1.87       6.91
N       1.22       8.06      11.52
N       0.14       7.31      11.53
N      32.40      11.40      11.62
N      15.58      25.02      27.81
N      16.65      25.77      27.83
N      17.04      21.69      27.96
N      31.88      24.38       5.30
N       0.31      23.64       5.28
N       0.69      27.72       5.15
N      17.51       8.69      21.62
N      16.43       9.44      21.61
N      16.06       5.35      21.47
N      11.51       1.21       8.06
N      11.52       0.14       7.32
N      11.63      32.40      11.40
N      27.81      15.59      25.01
N      27.82      16.66      25.76
N      27.96      17.04      21.68
N       5.28      31.88      24.38
N       5.27       0.31      23.63
N       5.15       0.69      27.72
N      21.60      17.52       8.70
N      21.60      16.45       9.45
N      21.46      16.07       5.37
N       8.08      11.50       1.20
N       7.33      11.51       0.13
N      11.41      11.62      32.39
N      25.02      27.81      15.58
N      25.77      27.83      16.65
N      21.69      27.96      17.04
N      24.38       5.28      31.88
N      23.63       5.27       0.31
N      27.71       5.15       0.69
N       8.70      21.60      17.52
N       9.45      21.60      16.45
N       5.36      21.46      16.07
N      32.59       9.34      28.92
N      31.82       8.29      28.97
N       3.25       7.80      28.99
N      16.83      23.76      12.62
N      17.61      24.81      12.67
N      13.53      25.30      12.65
N      16.25       7.43       4.16
N      15.48       8.49       4.11
N      19.56       8.96       4.13
N       0.52      25.65      20.47
N       1.28      24.59      20.42
N      29.84      24.13      20.44
N      25.65      20.48       0.51
N      24.60      20.43       1.27
N      24.12      20.44      29.84
N       7.43       4.14      16.25
N       8.49       4.10      15.48
N       8.96       4.12      19.56
N      23.77      12.59      16.83
N      24.82      12.65      17.60
N      25.31      12.65      13.52
N       9.34      28.93      32.58
N       8.29      28.98      31.81
N       7.81      28.98       3.25
N       4.18      16.27       7.44
N       4.12      15.50       8.49
N       4.11      19.57       8.98
N      20.47       0.52      25.66
N      20.42       1.29      24.60
N      20.45      29.85      24.13
N      28.93      32.58       9.35
N      28.98      31.81       8.29
N      28.97       3.24       7.81
N      12.61      16.83      23.77
N      12.66      17.60      24.82
N      12.66      13.52      25.30
O       2.58      13.81      10.99
O       4.81      12.05      14.94
O      14.21      19.27      27.33
O      11.97      21.06      31.27
O      30.51      30.13       5.78
O      28.28      28.35       1.84
O      18.90       2.95      22.09
O      21.13       4.76      18.16
O      11.00       2.58      13.81
O      14.95       4.81      12.05
O      27.33      14.20      19.27
O      31.27      11.97      21.08
O       5.79      30.52      30.13
O       1.84      28.29      28.36
O      22.09      18.90       2.95
O      18.15      21.13       4.74
O      13.82      11.00       2.58
O      12.03      14.95       4.81
O      19.28      27.33      14.20
O      21.07      31.26      11.97
O      30.13       5.79      30.52
O      28.36       1.84      28.28
O       2.95      22.08      18.89
O       4.74      18.15      21.13
O       5.79      10.39      29.84
O       4.14      13.42      26.39
O      10.99      22.71      13.52
O      12.64      19.69      10.07
O      22.09       6.38       3.24
O      20.47       3.38       6.71
O      27.32      26.72      19.57
O      28.97      29.73      23.03
O      26.72      19.58      27.31
O      29.74      23.03      28.97
O       6.38       3.24      22.09
O       3.38       6.71      20.47
O      22.71      13.51      10.98
O      19.67      10.07      12.64
O      10.40      29.85       5.77
O      13.42      26.39       4.14
O       3.25      22.10       6.38
O       6.71      20.46       3.36
O      19.57      27.32      26.72
O      23.03      28.97      29.73
O      29.85       5.77      10.40
O      26.39       4.14      13.42
O      13.51      10.99      22.71
O      10.07      12.64      19.68
