13

C      19.36       7.04       8.48
O      22.39       7.83       9.81
O      23.23       6.19       8.47
Zn      21.56       5.21       8.49
Zn      20.99       6.87      10.88
C      23.23       7.38       8.97
O      21.48       3.24       8.53
C      21.52       6.97      13.22
O      19.42       7.17       9.75
O      20.16       6.34       7.76
O      20.78       7.87      12.68
O      21.94       5.99      12.50
C      21.02       3.20       9.73
