9

Ca       8.20       5.43       8.18
O       6.71       5.99       6.57
O       9.67       4.88       6.57
C       6.86       6.29       5.36
C       9.54       4.56       5.36
O       7.35       3.42       8.80
C       6.92       2.59       7.92
O       9.08       7.42       8.80
C       9.51       8.24       7.91
