26

C       4.42      21.50      16.85
C       4.43      22.99       9.95
C       3.51      22.43      16.32
C       3.20      22.67      10.55
C       3.49      22.64      14.93
C       3.17      22.23      11.88
C       4.32      21.89      14.08
C       4.36      22.15      12.63
C       5.20      20.95      14.63
H       2.28      22.81      10.02
H       2.85      22.99      16.96
C       5.58      22.36      12.00
C       5.26      20.77      16.00
H       5.85      20.36      13.99
H       6.51      22.29      12.55
C       5.62      22.77      10.67
H       6.59      22.99      10.24
H       5.94      20.03      16.39
H       2.82      23.39      14.53
H       2.22      22.03      12.35
O       3.41      20.76      18.87
O       3.43      24.19       8.12
O       5.62      20.96      18.75
O       5.64      24.00       8.24
C       4.47      21.18      18.28
C       4.49      23.71       8.67
