46

C       0.04       5.98      16.74
C       0.71       7.01      16.08
H       1.24       7.78      16.63
C       0.71       7.07      14.68
C       0.05       6.08      13.94
H       2.24       3.50      10.79
C      -0.77       5.14      14.59
C      -0.69       5.05      15.99
H       1.25       7.86      14.19
H      -0.13       7.74      11.76
C       1.08       4.57      12.25
O       0.08       7.10      18.82
H       0.70       7.27       9.47
C       1.97       4.95       8.66
H      -1.22       4.26      16.50
C       1.67       4.39      11.00
C       0.83       6.53      10.25
C       0.35       6.79      11.54
C       0.48       5.81      12.55
C       1.48       5.32       9.98
C      -0.17       6.01      18.19
O      -0.87       5.09      18.70
H       0.76       1.62      13.62
H       1.90       1.92      12.29
H      -1.11       2.66      12.06
H       0.05       2.41      10.73
H       0.17       0.00      11.22
O       2.93       5.62       8.16
H      -1.53       0.54      10.98
H      -0.92       0.22      12.65
C      -2.70       3.79      14.41
O       1.66       3.79       8.24
O       1.11       3.59      13.24
C      -2.53       2.33      14.84
H      -2.32       1.71      13.95
O      -1.50       4.26      13.81
C       0.95       2.26      12.74
C      -0.23       2.07      11.75
C      -0.65       0.62      11.65
H      -3.47       3.83      13.64
H      -3.07       4.43      15.24
C      -3.77       1.79      15.53
H      -1.66       2.23      15.53
H      -3.96       2.34      16.47
H      -3.63       0.72      15.78
H      -4.65       1.88      14.86
