70

H       6.48       0.58       3.21
H       6.48      -0.59      -3.20
H       7.64       0.16       1.20
H       7.64      -0.19      -1.19
C       5.52      -0.43      -2.73
C       5.52       0.41       2.74
C       5.48      -0.18      -1.37
C       5.48       0.17       1.38
C       6.69       0.08       0.69
C       6.69      -0.11      -0.68
C       2.00      -0.22       3.76
C       1.04       0.67       4.28
C       0.06       0.22       5.16
C       0.02      -1.12       5.54
C       0.97      -2.02       5.04
C       1.95      -1.57       4.15
C       2.00       0.22      -3.76
C       1.05      -0.67      -4.28
C       0.07      -0.22      -5.17
C       0.04       1.12      -5.55
C       0.99       2.02      -5.04
C       1.97       1.57      -4.15
H       1.06       1.71       3.98
H      -0.68       0.92       5.55
H      -0.74      -1.47       6.23
H       0.94      -3.06       5.34
H       2.69      -2.27       3.77
H       1.06      -1.71      -3.98
H      -0.67      -0.91      -5.56
H      -0.72       1.47      -6.23
H       0.96       3.05      -5.35
H       2.70       2.27      -3.77
C       0.47       0.26       1.36
C      -0.09       1.54       1.43
C      -1.40       1.71       1.91
C      -2.15       0.60       2.30
C      -1.60      -0.68       2.22
C      -0.30      -0.85       1.75
C       0.47      -0.26      -1.37
C      -0.10      -1.54      -1.44
C      -1.40      -1.70      -1.92
C      -2.15      -0.59      -2.31
C      -1.59       0.69      -2.23
H       0.48       2.40       1.11
H      -1.83       2.70       1.96
H      -3.16       0.73       2.67
H      -2.18      -1.54       2.52
H       0.12      -1.84       1.68
C      -0.29       0.86      -1.75
H       0.47      -2.40      -1.11
H      -1.84      -2.69      -1.97
H       0.13       1.85      -1.69
H      -3.16      -0.72      -2.68
H      -2.17       1.55      -2.53
C       4.34       0.53       3.47
C       4.35      -0.53      -3.47
C       3.10      -0.24      -2.87
C       3.09       0.24       2.87
C       3.02      -0.12      -1.44
C       3.02       0.12       1.44
C       4.24      -0.08      -0.70
C       4.23       0.07       0.71
O       3.41      -1.65      -5.34
O       3.40       1.65       5.34
C       1.79       0.07       0.71
C       1.79      -0.07      -0.71
O       5.62      -1.46      -5.24
O       5.61       1.46       5.24
C       4.46      -1.17      -4.80
C       4.45       1.17       4.80
