10

H       9.54      -1.39      18.69
H       9.54       1.40      18.68
N       8.39       1.14      20.46
O       6.94       1.12      22.78
O       6.94      -1.09      22.79
C       7.99       0.01      21.08
N       7.23       0.01      22.29
C       9.09      -0.69      19.38
C       9.09       0.70      19.38
N       8.39      -1.12      20.47
