10

N      14.20      17.92       7.67
O      13.09      17.35       7.70
N      15.34      20.08       7.51
C      14.90      21.37       7.41
C      14.20      19.35       7.58
N      13.07      20.08       7.52
H      12.81      22.20       7.35
C      13.51      21.37       7.42
O      15.31      17.34       7.69
H      15.60      22.20       7.34
