14

H      10.14      21.90       1.04
H       8.11      19.76      -2.13
H       8.81      21.90      -1.04
N      10.10      17.23       0.94
N       8.84      17.23      -0.94
C       9.08      18.56      -0.59
C       9.86      18.56       0.59
C       8.69      19.76      -1.21
C       9.09      20.95      -0.59
C      10.25      19.76       1.21
H       9.47      15.42      -0.00
C       9.47      16.50      -0.00
C       9.85      20.95       0.59
H      10.83      19.75       2.13
