10

O      12.00      12.32       0.50
N      10.55      14.57       2.81
N      10.55      12.31       2.82
H       9.41      12.05       4.60
C      10.95      13.44       2.20
C       9.85      12.75       3.90
C       9.85      14.14       3.90
O      12.00      14.54       0.49
N      11.71      13.44       0.99
H       9.40      14.84       4.59
