14

C      18.63      -5.08      17.64
C      17.43      -5.52      17.05
C      16.25      -5.22      17.72
C      18.63      -4.37      18.87
C      17.43      -4.08      19.54
C      16.25      -4.51      18.94
C      20.68      -4.56      18.16
H      17.43      -3.54      20.48
H      15.30      -4.30      19.44
N      19.95      -5.19      17.21
H      21.76      -4.45      18.10
N      19.95      -4.06      19.17
H      17.43      -6.07      16.12
H      15.30      -5.54      17.29
