14

N       1.01      -1.13      10.17
C       1.74       0.01      10.24
N       1.01       1.14      10.17
C      -0.31      -0.71      10.06
C      -1.51      -1.43       9.97
C      -2.69      -0.70       9.89
H      -1.51       2.53       9.96
H      -1.51      -2.52       9.96
H       2.81       0.01      10.37
H      -3.64      -1.23       9.83
H      -3.64       1.24       9.83
C      -0.31       0.71      10.05
C      -1.51       1.44       9.97
C      -2.69       0.71       9.89
