10

N       5.87       6.65      15.76
C       4.04       7.94      15.87
C       5.43       7.94      15.87
N       4.74       4.49      15.61
O       3.64       3.91      15.59
C       4.74       5.91      15.71
O       5.85       3.92      15.58
H       6.13       8.77      15.93
H       3.34       8.77      15.94
N       3.61       6.65      15.77
