10

C       4.74       2.79      10.31
C       5.43       3.67       8.48
O       3.64       1.89      12.11
O       5.85       1.91      12.10
N       3.61       3.11       9.64
N       5.87       3.12       9.65
H       3.34       4.02       7.72
N       4.74       2.16      11.59
H       6.13       4.03       7.73
C       4.04       3.66       8.47
