136

Cu      -5.78       3.86       7.95
Cu      12.47       2.90       6.01
Cu       0.95      -2.11      13.95
Cu       5.73       8.86       0.00
Cu       9.54      -1.44      12.92
Cu       2.81       4.49       6.90
Cu      -1.56       7.40      12.92
Cu       7.15      11.19       6.91
Cu      -0.47      -4.43       7.05
Cu       8.25      -0.65       1.04
Cu       3.88       2.27       7.05
Cu      -2.85       8.19       1.03
H      10.36       1.83      10.04
H      -1.45       3.45       6.23
H       2.54      -4.63      13.53
H       6.39       9.93       2.72
H      -6.43       6.79       7.72
H      10.90       1.44       3.92
H       3.04       1.09      11.24
H       1.41       7.13       0.41
H      -3.67       4.93       3.91
H       8.14       3.31       7.72
H       4.15      11.39       0.42
H       0.30      -3.17      11.23
H      13.12      -0.03       6.23
H      -4.22       5.31      10.03
H       3.65       5.66       2.71
H       5.28      -0.38      13.54
H      -4.64       3.12      13.72
H       0.57      -0.35       6.55
H       5.49       1.79       3.15
H      10.68       9.78       3.16
H       6.11       7.10       7.40
H      11.33       3.64       0.23
H       1.19       4.96      10.80
H      -3.99      -3.02      10.79
C      -5.88       2.54      10.62
C      -5.64       2.33      11.98
C      -6.16       1.12      12.69
C      -1.45       2.36       6.26
C      -0.26       1.63       6.37
C       1.06       2.32       6.50
C       5.52       3.99       0.57
C       5.80       2.82       1.28
C       6.70       1.76       0.72
C       7.38       9.71       2.33
C       8.52       9.95       3.10
C       8.43      10.49       4.50
C       9.41       6.34       7.69
C       8.27       7.14       7.58
C       8.36       8.63       7.46
C      11.31       2.26       3.34
C      11.03       2.39       1.97
C      10.14       1.42       1.26
C       2.44       1.92      11.63
C       2.21       3.06      10.85
C       2.73       3.17       9.45
C      -1.97      -2.11      13.37
C      -3.16      -2.32      12.66
C      -4.48      -1.90      13.21
C      12.57       4.22       3.33
C      12.33       4.42       1.97
C      12.85       5.63       1.26
C       8.14       4.39       7.69
C       6.95       5.12       7.58
C       5.63       4.43       7.46
C       1.17       2.76      13.38
C       0.89       3.93      12.67
C      -0.01       4.99      13.23
C      -0.70      -2.96      11.62
C      -1.84      -3.20      10.85
C      -1.74      -3.74       9.45
C      -2.72       0.41       6.26
C      -1.58      -0.39       6.37
C      -1.67      -1.88       6.50
C      -4.62       4.49      10.62
C      -4.34       4.36      11.98
C      -3.45       5.33      12.69
C       4.25       4.83       2.33
C       4.48       3.69       3.10
C       3.96       3.58       4.50
C       8.66       8.86       0.59
C       9.85       9.07       1.29
C      11.17       8.65       0.74
C      -4.86       3.26      12.67
C      -0.33       0.24       6.43
C       5.27       2.68       2.57
C       9.77       9.62       2.57
C       7.02       6.51       7.52
C      11.55       3.49       1.28
C       1.41       4.08      11.38
C      -3.09      -2.87      11.38
I      -3.79       5.30       6.97
I      10.48       1.45       6.99
I       3.77       8.59       1.75
I       2.92      -1.84      12.20
N      -5.38       3.59       9.94
N      -2.66       1.76       6.20
N       4.75       4.99       1.08
N       7.45       9.17       1.09
N       9.35       4.99       7.75
N      12.07       3.16       4.01
N       1.93       1.77      12.87
N      -0.76      -2.42      12.86
O      10.01       0.27      12.01
O      -5.85       1.03      13.93
O       1.07       3.60       6.50
O       2.07       1.55       6.62
O       3.82      -6.83      13.52
O       6.90       0.75       1.48
O       7.26      10.71       4.97
O       9.54      10.66       5.11
O      -7.32       9.16       7.46
O       7.24       9.24       7.33
O       9.62       0.48       1.95
O       9.95       1.65       0.02
O       3.40       2.19       8.99
O       2.43       4.25       8.84
O      -1.11       7.44       0.41
O      -5.49      -2.12      12.46
O      -3.32       6.48       1.94
O      12.54       5.72       0.02
O       5.62       3.16       7.45
O       4.61       5.20       7.33
O       2.87      13.58       0.43
O      -0.21       6.00      12.47
O      -0.57      -3.95       8.98
O      -2.85      -3.91       8.85
O      14.00      -2.40       6.49
O      -0.55      -2.49       6.62
O      -2.94       6.27      12.00
O      -3.26       5.10      13.93
O       3.29       4.56       4.96
O       4.26       2.50       5.11
O       7.79      -0.69      13.54
O      12.18       8.87       1.49
