25

Mg       4.27       7.74      14.00
C       7.33       0.59       7.96
Mg       5.79       2.70       9.13
Mg       5.03       5.22      11.57
C       4.06       2.20      10.87
C       7.61       3.36      11.44
C       4.37       4.85      14.63
C       2.73       9.85      15.17
O       5.67       7.00      12.49
O       5.45       9.16      12.93
O       3.16       6.17      11.16
O       2.62       7.47      12.90
O       5.57       5.93       9.71
O       5.72       4.39       8.06
O       6.38       1.42       7.72
O       4.39       3.44      10.64
O       4.62       1.28      10.20
O       6.91       4.27      11.97
O       7.44       2.97      10.23
C       6.01       8.24      12.26
O       4.49       4.51      13.42
O       4.35       6.05      15.07
O       3.68       9.02      15.41
C       2.45       7.07      11.69
C       5.70       5.59       8.50
