21

Mg      11.22       4.48       1.50
Mg      12.45      10.07      -1.50
Mg      11.83       7.27       0.00
C      12.52       7.70      -3.07
C      13.05       4.31      -0.10
C       9.34       5.16      -0.31
O      10.97       5.56       3.11
O      11.48       7.50       2.04
O      10.96       9.11      -0.46
O      11.15      11.31      -0.33
O      13.63       8.32       0.33
O      14.13      10.34      -0.54
O      12.69       8.99      -3.11
O      12.19       7.05      -2.04
O      12.71       5.44       0.46
O      12.51       3.24       0.33
O      10.03       6.23      -0.33
C      11.14       6.85       3.07
O       9.53       4.21       0.54
C      10.61      10.24       0.10
C      14.32       9.39       0.31
