28

H       6.15       8.98       9.48
H       6.29      12.21       6.04
H       6.26      11.06       8.17
H       5.90       6.66       5.91
H       5.92       8.84       0.22
H       5.86       6.63       3.84
H       5.80       6.71       1.44
H       6.24      12.21       3.63
C       5.96       6.47       8.51
C       6.18      10.11       7.65
C       6.02       7.70       7.74
C       5.94       8.84       1.31
C       5.88       7.63       1.99
C       5.91       7.61       3.38
C       6.01       8.81       4.14
C       6.08      10.04       3.43
C       6.05       8.82       5.57
C       6.15      10.07       6.25
C       6.22      11.26       5.53
C       6.18      11.25       4.14
C       5.98       7.64       6.35
C       6.12       8.93       8.39
C       6.05      10.04       2.01
C       6.11      11.29       1.24
O       7.07       5.87       8.78
O       4.78       6.02       8.84
O       4.99      11.88       0.98
O       7.28      11.73       0.92
