28

H       2.35      -0.42      10.04
H       2.34      -3.65      13.48
H       2.31      -2.50      11.35
H       2.69       1.90      13.60
H       2.83      -0.27      19.28
H       2.87       1.92      15.67
H       2.95       1.85      18.07
H       2.42      -3.64      15.89
C       2.49       2.10      11.00
C       2.40      -1.55      11.87
C       2.54       0.86      11.77
C       2.77      -0.28      18.20
C       2.84       0.93      17.52
C       2.79       0.95      16.12
C       2.65      -0.24      15.38
C       2.57      -1.48      16.09
C       2.59      -0.26      13.95
C       2.47      -1.51      13.27
C       2.42      -2.70      13.99
C       2.47      -2.69      15.38
C       2.63       0.92      13.17
C       2.43      -0.38      11.12
C       2.63      -1.48      17.51
C       2.67      -2.73      18.27
O       3.61       2.69      10.73
O       1.32       2.54      10.68
O       3.84      -3.17      18.60
O       1.55      -3.32      18.54
