75

Dy      10.09       6.13       7.03
Dy       6.86       4.17       3.99
Cu       3.32       5.15       5.52
H       8.76       9.90       5.17
H      11.88       1.90       3.88
H       5.46       7.50       3.74
H      11.49       5.22      10.46
H      11.19       3.31       2.33
H       5.03       3.67       9.16
H       8.15       0.39       5.87
H       5.04       8.41       7.16
H      11.44       2.81       7.30
H       5.42       5.09       0.57
H       5.72       6.99       8.71
H      11.88       6.64       1.88
C       7.18       8.57       4.51
C       7.76       9.83       4.76
C       3.49       1.08       4.51
C       2.19       1.00       4.01
C       5.19       9.65       3.71
C       5.90       8.48       3.95
C       7.90       7.31       4.89
C       4.01       2.45       4.79
C      13.40       4.51       9.67
C      12.47       4.78      10.69
C       9.70       4.06       0.97
C      10.95       3.52       1.29
C       1.55       3.23       0.25
C       4.35       3.91       9.97
C      13.10       4.83       8.24
C       8.71       4.17       2.07
C       9.73       1.74       6.52
C       9.15       0.48       6.28
C      13.42       9.23       6.53
C      14.72       9.31       7.03
C      11.72       0.66       7.33
C      11.01       1.83       7.08
C       9.00       2.99       6.15
C      12.90       7.85       6.26
C       3.52       5.79       1.37
C       4.44       5.53       0.35
C       7.21       6.25      10.07
C       5.97       6.79       9.75
C      15.37       7.08      10.78
C      12.56       6.40       1.07
C       3.81       5.47       2.80
C       8.20       6.13       8.98
N      14.09       9.59       3.16
N       2.86       2.63       0.56
N       2.82       0.72       7.88
N      14.06       7.68      10.48
O       7.30       6.19       4.69
O       9.05       7.39       5.40
O       5.26       2.69       4.70
O       3.10       3.29       5.07
O      10.00       0.75       2.90
O      13.59       8.46       3.02
O       3.76       4.69       7.39
O      11.91       5.19       7.93
O       7.49       4.50       1.80
O       9.05       3.87       3.27
O       3.19       2.55       1.76
O       6.68       2.67      10.65
O       9.59       4.11       6.36
O       7.85       2.89       5.63
O      11.65       7.61       6.34
O      13.81       7.01       5.97
O       6.91       9.56       8.14
O       3.32       1.85       8.02
O      13.14       5.62       3.64
O       4.99       5.08       3.11
O       9.43       5.86       9.26
O       7.85       6.37       7.77
O      13.73       7.76       9.28
O      10.24       7.64       0.39
