58

Zn       6.07       3.94       1.15
Zn       7.62       8.56       7.38
H       4.76       6.88       0.94
H       8.77       5.18       4.46
H       8.47       6.92       4.62
H       6.80       3.62       5.52
H       9.86       3.91       6.56
H      12.06       3.62       7.06
H      12.35       2.04       7.82
H       6.21       6.57       5.44
H       5.73       2.82       8.04
H       5.18       2.38       6.43
H       8.53       3.08       1.21
H       8.50       4.61       0.51
H       8.91       2.25       7.60
H       4.91       0.55       4.08
H       5.19       2.31       3.93
H       6.92       8.23       3.04
H       3.81       8.54       1.99
H       1.66       8.21       1.49
H       1.37       6.63       0.73
H       7.45       1.96       3.07
H       7.98       7.40       0.53
H       8.55       6.98       2.13
H       5.17       7.65       7.35
H       5.19       9.18       8.06
C       4.69       6.36       0.00
C       8.27       5.94       5.07
C       9.53       4.83       7.02
C       8.82       5.86       6.45
C      12.71       3.07       7.75
C       6.34       5.58       3.53
C       6.73       5.70       5.01
C       5.03       3.11       7.24
C       5.41       4.50       6.73
C       8.98       1.73       8.54
C       5.40       1.33       3.47
C       4.11       0.24       1.52
C       4.84       1.25       2.09
C       1.01       7.66       0.80
C       7.35       0.99       4.99
C       6.94       1.10       3.52
C       8.69       7.70       1.32
C       8.32       9.10       1.82
N       8.03       3.69       0.54
N       6.34       4.52       5.76
N       9.78       5.14       8.35
N       8.61       6.82       7.44
N       5.67       8.27       8.01
N       7.38       9.13       2.79
N       3.86       0.55       0.20
N       5.07       2.21       1.10
O       6.29       4.37       3.07
O       6.15       6.62       2.86
O       4.84       5.53       7.18
O       7.37       9.01       5.47
O       7.61       2.03       5.64
O       8.84       0.90       1.36
