22

C       4.38       9.00       4.11
C       5.33       8.35       3.11
C       4.61       7.99       1.80
C       3.88       9.14       1.14
C       5.99       7.12       3.70
C       5.26       6.20       4.46
C       5.88       5.06       4.98
C       7.24       4.83       4.74
C       7.97       5.73       3.96
C       7.35       6.87       3.44
H       6.10       9.10       2.90
H       3.88       7.19       1.98
H       5.33       7.58       1.08
H       4.21       6.37       4.64
H       5.31       4.36       5.58
H       7.72       3.95       5.15
H       9.02       5.55       3.75
H       7.93       7.58       2.85
O       4.80       9.82       4.97
O       3.14       8.65       4.04
O       4.14      10.32       1.57
O       3.07       8.92       0.20
