28

Mg       4.07       4.64       0.43
Mg       5.26       1.39       0.86
Mg       5.98       8.86      -0.43
Mg       4.78      -1.39      -0.86
C       4.09       7.41       1.73
C       6.10       3.39       2.49
C       2.88       2.39       2.20
C       6.02      -1.75       1.42
C       5.96       6.08      -1.73
C       3.95      10.11      -2.49
C       7.17      11.10      -2.20
C       4.02       1.75      -1.42
O       3.77       6.22       1.69
O       6.09       2.14       2.59
O       4.81       8.00       0.93
O       5.70       4.01       1.48
O       5.77      10.73       0.73
O       5.63      -0.61       1.02
O       3.47       1.36       1.78
O       2.92       3.53       1.69
O       6.27       7.28      -1.69
O       3.96      -2.14      -2.59
O       5.24       5.50      -0.93
O       4.35       9.49      -1.48
O       4.27       2.77      -0.73
O       4.42       0.61      -1.02
O       6.58      -1.36      -1.78
O       7.13       9.97      -1.69
