784

H       8.14      27.72      37.33
H       6.17      27.12      38.53
H       7.39      29.49      41.78
H       9.34      30.16      40.57
H       5.24      30.40      39.77
H       2.60       1.34      39.86
H       4.62      25.59      39.97
H       4.48      23.49      41.11
H       5.85      25.34      44.65
H       5.98      27.44      43.49
H       2.98      27.81      42.22
H       1.23      29.41      42.28
H      18.96      13.86      46.32
H      20.86      13.19      45.05
H      23.22      13.26      48.53
H      21.36      14.03      49.79
H      25.52      12.88      47.45
H       1.37      14.49      47.40
H      23.45      10.31      46.96
H      23.36       8.20      45.83
H      23.10      10.21      42.13
H      23.21      12.31      43.27
H      23.72      14.73      44.13
H      25.51      16.32      44.03
H       9.32      19.94      47.34
H       7.42      20.52      46.05
H       5.46      17.02      47.38
H       7.35      16.46      48.69
H       3.20      18.83      47.67
H       1.36      17.28      47.66
H       4.11      21.55      46.62
H       4.17      23.65      45.46
H       6.00      21.77      42.16
H       5.93      19.68      43.31
H       4.25      17.62      43.78
H       2.40      16.09      43.74
H      19.98       4.39      37.63
H      21.90       5.08      38.89
H      21.21       1.98      41.66
H      19.32       1.25      40.39
H      24.45       3.29      39.07
H       0.31       1.69      39.04
H      24.37       6.10      40.47
H      24.53       8.19      41.63
H      21.73       6.82      44.48
H      21.60       4.72      43.33
H      23.85       2.57      43.17
H      26.57      31.66      43.17
H      20.31       3.94      20.11
H      22.29       4.54      18.91
H      21.06       2.17      15.66
H      19.11       1.51      16.87
H      23.22       1.25      17.67
H      25.85      30.32      17.57
H      23.84       6.07      17.47
H      23.98       8.17      16.33
H      22.60       6.31      12.79
H      22.48       4.22      13.94
H      25.47       3.84      15.22
H       1.30       2.25      15.16
H       9.50      17.81      11.12
H       7.59      18.47      12.39
H       5.23      18.40       8.90
H       7.10      17.64       7.64
H       2.94      18.78       9.98
H       1.16      17.16      10.03
H       5.00      21.35      10.47
H       5.09      23.46      11.60
H       5.35      21.44      15.31
H       5.25      19.34      14.16
H       4.74      16.93      13.30
H       2.94      15.34      13.40
H      19.13      11.71      10.10
H      21.04      11.14      11.40
H      22.99      14.63      10.05
H      21.10      15.19       8.74
H      25.26      12.83       9.77
H       1.17      14.38       9.78
H      24.34      10.11      10.82
H      24.29       8.00      11.97
H      22.46       9.88      15.28
H      22.53      11.98      14.13
H      24.20      14.04      13.66
H      26.05      15.57      13.69
H       8.47      27.25      19.80
H       6.56      26.57      18.54
H       7.25      29.68      15.78
H       9.14      30.40      17.06
H       4.00      28.37      18.37
H       2.22      29.97      18.40
H       4.09      25.56      16.96
H       3.93      23.46      15.81
H       6.72      24.84      12.95
H       6.85      26.94      14.11
H       4.61      29.09      14.27
H       2.80      30.67      14.27
H      19.18       2.53      36.19
H      17.30       1.80      34.93
H      17.04       1.93      39.77
H      15.17       1.17      38.53
H      13.37      30.17      38.47
H      11.49      29.42      39.69
H      11.04      30.33      34.95
H       9.14      29.62      36.18
H      12.57      31.07      32.08
H      12.57      31.07      29.71
H      16.79      31.28      29.71
H      16.79      31.33      32.08
H       8.67      17.51      50.77
H      10.59      16.89      52.04
H      11.07      17.95      47.33
H      12.99      17.34      48.59
H      16.07      16.43      48.67
H      17.95      15.69      47.43
H      17.43      14.27      52.04
H      19.27      13.47      50.78
H      16.37      16.29      54.98
H      16.37      16.47      57.34
H      12.15      16.59      57.33
H      12.15      16.46      54.96
H       9.28      29.11      21.25
H      11.17      29.83      22.50
H      11.43      29.71      17.67
H      13.29      30.46      18.91
H      15.07       1.51      18.97
H      16.96       2.25      17.75
H      17.40       1.36      22.49
H      19.30       2.06      21.25
H      15.43       1.77      25.35
H      15.41       1.82      27.71
H      13.05      29.82      27.74
H      13.03      29.82      25.37
H      19.78      14.13       6.67
H      17.86      14.73       5.40
H      17.38      13.70      10.11
H      15.46      14.31       8.85
H      12.39      15.25       8.76
H      10.51      15.98       9.99
H      11.04      17.42       5.40
H       9.19      18.21       6.66
H      12.53      16.55       2.39
H      12.55      16.43       0.02
H      15.86      13.82       0.19
H      15.88      13.99       2.54
H       7.99      22.44      26.33
H       6.01      21.83      27.53
H       7.24      24.20      30.78
H       9.19      24.87      29.57
H       5.08      25.12      28.77
H       3.35      26.72      28.87
H       4.46      20.30      28.97
H       4.32      18.21      30.11
H       5.70      20.06      33.65
H       5.82      22.16      32.50
H       2.83      22.53      31.22
H       1.07      24.12      31.28
H      18.80       8.58      35.32
H      20.71       7.90      34.05
H      23.07       7.97      37.53
H      21.20       8.74      38.80
H      25.36       7.59      36.46
H       1.21       9.21      36.40
H      23.30       5.03      35.97
H      23.21       2.92      34.84
H      22.95       4.93      31.13
H      23.05       7.03      32.28
H      23.56       9.45      33.13
H      25.36      11.04      33.04
H       9.16      14.66      36.35
H       7.26      15.23      35.05
H       5.30      11.74      36.38
H       7.20      11.18      37.69
H       3.04      13.54      36.67
H       1.20      11.99      36.66
H       3.96      16.27      35.62
H       4.01      18.37      34.47
H       5.85      16.49      31.16
H       5.77      14.40      32.32
H       4.10      12.34      32.78
H       2.24      10.81      32.74
H      20.73      29.78      26.64
H      22.65      30.46      27.90
H      21.96      27.37      30.66
H      20.07      26.64      29.39
H      25.21      28.67      28.07
H       1.06      27.07      28.04
H      24.21       0.82      29.48
H      24.37       2.91      30.63
H      21.58       1.53      33.48
H      22.35      30.11      32.33
H      24.60      27.95      32.17
H      26.41      26.38      32.17
H      21.06      29.33       9.11
H      23.04      29.93       7.91
H      21.81      27.56       4.66
H      19.86      26.90       5.87
H      23.97      26.64       6.67
H      25.70      25.03       6.57
H      23.68       0.79       6.47
H      23.82       2.88       5.33
H      22.44       1.03       1.79
H      23.23      29.60       2.95
H      26.22      29.23       4.22
H       2.05      27.64       4.16
H       9.34      12.53       0.12
H       7.43      13.19       1.39
H       5.12      14.66      57.11
H       6.99      13.90      55.85
H       2.83      15.03      58.19
H       1.05      13.41      58.25
H       4.89      17.60      58.68
H       4.94      18.17       0.61
H       5.20      16.16       4.31
H       5.09      14.06       3.17
H       4.58      11.65       2.31
H       2.78      10.05       2.41
H      19.02       7.96      58.32
H      20.88       5.86       0.40
H      22.88      10.88      58.26
H      20.99      11.44      56.95
H      25.15       9.08      57.98
H       1.06      10.63      57.99
H      24.23       6.36      59.03
H      24.13       2.72       0.98
H      22.30       4.60       4.29
H      22.38       6.69       3.13
H      24.04       8.76       2.66
H      25.90      10.28       2.70
H       8.32      21.97       8.80
H       6.40      21.29       7.54
H       7.09      24.39       4.79
H       8.98      25.11       6.06
H       3.85      23.09       7.37
H       2.07      24.68       7.40
H       3.93      20.27       5.97
H       3.77      18.18       4.81
H       6.57      19.56       1.96
H       6.70      21.65       3.11
H       4.45      23.81       3.27
H       2.64      25.38       3.27
H      19.94      27.92      25.19
H      18.05      27.19      23.94
H      17.79      27.32      28.77
H      15.92      26.56      27.53
H      13.22      24.89      27.47
H      11.33      24.14      28.69
H      10.88      25.05      23.95
H       8.99      24.34      25.19
H      12.42      25.78      21.08
H      12.42      25.79      18.71
H      16.63      25.99      18.71
H      16.63      26.05      21.08
H       8.51      12.22      39.77
H      10.43      11.61      41.04
H      10.91      12.67      36.33
H      12.83      12.05      37.59
H      15.92      11.15      37.67
H      17.79      10.41      36.44
H      17.27       8.99      41.04
H      19.12       8.19      39.78
H      16.21      11.00      43.98
H      16.21      11.19      46.34
H      11.99      11.30      46.33
H      12.00      11.18      43.97
H       9.12      23.82      10.26
H      11.01      24.54      11.51
H      11.27      24.43       6.67
H      13.14      25.17       7.91
H      15.83      26.89       7.97
H      17.71      27.64       6.75
H      18.15      26.74      11.49
H      20.06      27.44      10.26
H      16.18      27.16      14.35
H      16.16      27.21      16.72
H      12.89      24.53      16.74
H      12.87      24.54      14.37
H      19.67      10.38      54.88
H      17.75      10.98      53.61
H      17.27       9.95      58.32
H      15.35      10.56      57.06
H      12.28      11.50      56.97
H      10.40      12.23      58.21
H      10.93      13.67      53.61
H       9.08      14.46      54.87
H      12.41      12.80      50.60
H      12.44      12.68      48.23
H      15.75      10.07      48.40
H      15.76      10.24      50.76
C       6.62      28.22      40.28
C       5.33      26.70      41.62
C       4.32      28.93      41.00
C       4.41      30.17      40.32
C       3.38      31.12      40.36
C       2.18      30.88      41.08
C       2.08      29.64      41.77
C       3.12      28.69      41.72
C       6.85      27.73      38.98
C       8.01      28.11      38.27
C       8.96      29.01      38.82
C       8.71      29.48      40.14
C       7.56      29.09      40.85
C       4.89      25.54      40.95
C       4.82      24.30      41.63
C       5.16      24.19      43.00
C       5.58      25.37      43.67
C       5.67      26.61      42.99
C      22.23      13.16      46.67
C      23.36      11.51      45.22
C      24.46      13.65      45.79
C      25.52      13.59      46.72
C       0.63      14.55      46.70
C       0.65      15.57      45.71
C      25.54      15.59      44.75
C      24.48      14.66      44.80
C      20.97      13.35      46.05
C      19.85      13.76      46.81
C      19.95      14.03      48.20
C      21.22      13.83      48.80
C      22.33      13.39      48.06
C      23.39      10.29      45.94
C      23.32       9.06      45.27
C      23.23       8.99      43.86
C      23.20      10.21      43.15
C      23.26      11.45      43.82
C       6.21      18.84      46.58
C       4.98      20.42      45.05
C       3.88      18.38      45.72
C       3.02      18.27      46.83
C       1.95      17.35      46.82
C       1.70      16.54      45.69
C       2.54      16.68      44.56
C       3.63      17.58      44.58
C       7.37      19.66      46.60
C       8.51      19.31      47.36
C       8.52      18.15      48.16
C       7.37      17.33      48.15
C       6.25      17.66      47.36
C       4.49      21.59      45.66
C       4.54      22.83      44.99
C       5.08      22.93      43.68
C       5.57      21.74      43.08
C       5.53      20.51      43.76
C      21.72       3.60      40.40
C      22.97       5.22      41.79
C      24.00       3.08      41.12
C      24.71       2.81      39.94
C      25.76       1.88      39.93
C       0.21       1.17      41.10
C      25.42       1.46      42.29
C      24.36       2.40      42.30
C      21.35       4.28      39.22
C      20.23       3.86      38.47
C      19.45       2.75      38.88
C      19.83       2.08      40.07
C      20.95       2.50      40.82
C      23.81       6.25      41.32
C      23.89       7.48      41.99
C      23.15       7.73      43.17
C      22.31       6.68      43.65
C      22.22       5.45      42.96
C      21.84       3.44      17.16
C      23.13       4.95      15.82
C      24.13       2.72      16.43
C      24.04       1.48      17.12
C      25.08       0.53      17.07
C       0.35       0.77      16.35
C       0.45       2.01      15.67
C      25.33       2.96      15.71
C      21.60       3.93      18.46
C      20.44       3.56      19.17
C      19.49       2.66      18.61
C      19.74       2.18      17.30
C      20.89       2.57      16.58
C      23.56       6.12      16.48
C      23.64       7.35      15.81
C      23.30       7.46      14.44
C      22.88       6.28      13.77
C      22.79       5.05      14.45
C       6.23      18.50      10.77
C       5.10      20.15      12.21
C       3.99      18.01      11.65
C       2.94      18.06      10.71
C       1.90      17.11      10.74
C       1.88      16.09      11.72
C       2.92      16.07      12.68
C       3.97      17.00      12.63
C       7.49      18.31      11.38
C       8.60      17.90      10.63
C       8.51      17.64       9.23
C       7.24      17.84       8.63
C       6.13      18.27       9.38
C       5.06      21.36      11.49
C       5.13      22.60      12.16
C       5.23      22.67      13.57
C       5.25      21.45      14.29
C       5.20      20.21      13.62
C      22.24      12.81      10.86
C      23.48      11.24      12.38
C      24.57      13.28      11.72
C      25.44      13.39      10.61
C       0.58      14.31      10.61
C       0.83      15.12      11.74
C      25.92      14.98      12.87
C      24.83      14.08      12.85
C      21.08      12.00      10.84
C      19.94      12.34      10.08
C      19.93      13.50       9.28
C      21.08      14.32       9.29
C      22.20      13.99      10.07
C      23.97      10.07      11.77
C      23.92       8.83      12.45
C      23.38       8.72      13.75
C      22.89       9.91      14.36
C      22.93      11.15      13.68
C       6.74      28.05      17.04
C       5.49      26.44      15.64
C       4.46      28.58      16.31
C       3.74      28.84      17.50
C       2.69      29.78      17.51
C       2.32      30.48      16.33
C       3.04      30.20      15.15
C       4.09      29.26      15.13
C       7.11      27.37      18.21
C       8.23      27.79      18.96
C       9.01      28.90      18.56
C       8.63      29.57      17.37
C       7.51      29.16      16.62
C       4.65      25.41      16.12
C       4.56      24.18      15.44
C       5.31      23.93      14.26
C       6.15      24.97      13.79
C       6.24      26.21      14.47
C      14.89       0.95      35.85
C      14.68      31.21      33.77
C      13.56      30.78      35.84
C      14.68      31.20      32.34
C      15.89      31.28      31.60
C      15.89      31.26      30.19
C      14.68      31.17      29.44
C      13.48      31.10      30.19
C      13.48      31.11      31.60
C      16.03       1.40      36.59
C      17.22       1.82      35.95
C      18.34       2.26      36.70
C      18.31       2.31      38.11
C      17.12       1.89      38.75
C      16.01       1.45      38.01
C      12.41      30.33      36.58
C      12.49      30.07      37.97
C      11.37      29.62      38.69
C      10.11      29.44      38.07
C      10.03      29.71      36.68
C      11.16      30.14      35.95
C      13.15      16.66      51.20
C      14.27      16.29      53.28
C      15.40      15.87      51.22
C      14.26      16.35      54.71
C      13.05      16.46      55.45
C      13.05      16.55      56.85
C      14.26      16.55      57.60
C      15.46      16.44      56.86
C      15.47      16.34      55.46
C      11.99      17.05      50.45
C      10.71      17.12      51.05
C       9.57      17.47      50.30
C       9.67      17.79      48.92
C      10.95      17.74      48.33
C      12.09      17.36      49.07
C      16.55      15.43      50.49
C      16.74      15.80      49.13
C      17.85      15.35      48.40
C      18.82      14.49      48.96
C      18.63      14.12      50.32
C      17.53      14.59      51.07
C      13.58      30.68      21.59
C      14.68      31.12      23.67
C      14.89       0.90      21.59
C      14.69      31.13      25.10
C      13.73      30.39      25.85
C      13.74      30.40      27.26
C      14.68      31.15      28.00
C      14.72       1.23      27.24
C      14.73       1.21      25.83
C      12.44      30.22      20.84
C      11.24      29.81      21.48
C      10.13      29.37      20.74
C      10.15      29.33      19.32
C      11.34      29.74      18.69
C      12.46      30.18      19.43
C      16.03       1.36      20.86
C      15.96       1.62      19.47
C      17.08       2.05      18.74
C      18.34       2.24      19.36
C      18.41       1.97      20.76
C      17.29       1.55      21.49
C      15.30      14.98       6.24
C      14.19      15.36       4.15
C      13.06      15.82       6.21
C      14.20      15.29       2.72
C      15.17      14.52       2.03
C      15.16      14.43       0.62
C      14.25      16.64      59.04
C      13.25      15.89       0.53
C      13.24      15.97       1.94
C      16.45      14.58       6.99
C      17.73      14.51       6.39
C      18.88      14.16       7.14
C      18.77      13.85       8.52
C      17.50      13.90       9.11
C      16.36      14.27       8.37
C      11.92      16.26       6.95
C      11.73      15.88       8.30
C      10.61      16.32       9.04
C       9.64      17.19       8.47
C       9.84      17.56       7.11
C      10.94      17.10       6.37
C       6.46      22.93      29.28
C       5.17      21.42      30.62
C       4.17      23.65      30.01
C       4.26      24.89      29.32
C       3.22      25.84      29.37
C       2.03      25.60      30.09
C       1.93      24.36      30.77
C       2.97      23.41      30.73
C       6.70      22.45      27.98
C       7.85      22.83      27.27
C       8.80      23.72      27.82
C       8.56      24.20      29.14
C       7.41      23.81      29.86
C       4.74      20.25      29.96
C       4.66      19.02      30.63
C       5.00      18.91      32.00
C       5.42      20.09      32.67
C       5.51      21.32      31.99
C      22.07       7.88      35.67
C      23.20       6.22      34.23
C      24.31       8.36      34.79
C      25.36       8.31      35.73
C       0.47       9.27      35.70
C       0.50      10.28      34.71
C      25.38      10.31      33.75
C      24.33       9.38      33.81
C      20.82       8.07      35.06
C      19.70       8.48      35.81
C      19.79       8.74      37.20
C      21.06       8.54      37.81
C      22.17       8.11      37.06
C      23.23       5.01      34.95
C      23.17       3.77      34.28
C      23.07       3.70      32.86
C      23.04       4.93      32.15
C      23.10       6.17      32.82
C       6.05      13.56      35.58
C       4.82      15.13      34.06
C       3.73      13.09      34.72
C       2.86      12.99      35.83
C       1.79      12.07      35.83
C       1.54      11.25      34.70
C       2.38      11.40      33.57
C       3.47      12.29      33.59
C       7.22      14.37      35.60
C       8.35      14.03      36.36
C       8.37      12.86      37.16
C       7.22      12.05      37.15
C       6.10      12.38      36.37
C       4.33      16.31      34.67
C       4.38      17.54      33.99
C       4.93      17.65      32.69
C       5.41      16.46      32.08
C       5.37      15.23      32.76
C      22.47      28.99      29.40
C      23.72      30.60      30.80
C      24.75      28.47      30.13
C      25.46      28.20      28.94
C      26.51      27.26      28.93
C       0.96      26.56      30.11
C      26.17      26.85      31.29
C      25.12      27.78      31.30
C      22.10      29.67      28.23
C      20.98      29.25      27.48
C      20.20      28.13      27.88
C      20.58      27.46      29.07
C      21.70      27.88      29.82
C      23.65       0.96      30.32
C      23.73       2.20      31.00
C      22.99       2.44      32.18
C      22.15       1.40      32.65
C      22.97      30.84      31.97
C      22.59      28.83       6.16
C      23.88      30.34       4.82
C      24.89      28.11       5.44
C      24.80      26.87       6.12
C      25.83      25.92       6.08
C       1.10      26.16       5.36
C       1.20      27.40       4.67
C      26.09      28.35       4.72
C      22.35      29.32       7.46
C      21.20      28.94       8.17
C      20.24      28.05       7.62
C      20.49      27.57       6.30
C      21.64      27.96       5.59
C      23.41       0.83       5.49
C      23.48       2.07       4.81
C      23.14       2.18       3.44
C      22.72       1.00       2.77
C      23.54      30.44       3.45
C       6.12      14.75      58.98
C       4.94      14.87       1.21
C       3.84      12.73       0.65
C       2.83      14.31      58.92
C       1.79      13.36      58.95
C       1.72      10.81       0.73
C       2.76      10.78       1.69
C       3.82      11.72       1.63
C       7.33      13.02       0.39
C       8.49      14.15      58.84
C       8.40      13.89      57.45
C       7.13      14.09      56.84
C       6.02      14.53      57.59
C       4.91      16.08       0.49
C       4.97      17.32       1.17
C       5.07      17.39       2.58
C       5.10      16.16       3.29
C       5.04      14.92       2.62
C      22.13       9.06      59.07
C      23.32       5.96       1.39
C      24.41       8.00       0.72
C      25.33       9.64      58.82
C       0.47      10.56      58.82
C       0.68       9.84       0.74
C      25.76       9.69       1.87
C      24.67       8.80       1.85
C      20.97       8.25      59.06
C      19.83       8.59      58.30
C      19.82       9.75      57.50
C      20.97      10.57      57.50
C      22.09      10.24      58.28
C      23.81       4.78       0.78
C      23.76       3.55       1.45
C      23.22       3.44       2.76
C      22.73       4.63       3.36
C      22.78       5.86       2.68
C       6.58      22.77       6.04
C       5.33      21.16       4.64
C       4.30      23.29       5.32
C       3.59      23.56       6.50
C       2.54      24.50       6.51
C       2.16      25.20       5.34
C       2.89      24.92       4.15
C       3.94      23.98       4.14
C       6.95      22.09       7.22
C       8.07      22.50       7.97
C       8.86      23.62       7.56
C       8.47      24.29       6.38
C       7.35      23.87       5.63
C       4.49      20.13       5.12
C       4.41      18.89       4.44
C       5.15      18.65       3.26
C       5.99      19.69       2.79
C       6.08      20.92       3.47
C      15.64      26.34      24.85
C      14.52      25.93      22.77
C      13.40      25.50      24.84
C      14.52      25.92      21.34
C      15.73      26.00      20.60
C      15.73      25.97      19.19
C      14.53      25.89      18.44
C      13.32      25.82      19.19
C      13.32      25.83      20.60
C      16.78      26.79      25.60
C      17.98      27.20      24.96
C      19.09      27.65      25.70
C      19.07      27.69      27.12
C      17.87      27.28      27.75
C      16.76      26.84      27.01
C      12.26      25.05      25.58
C      12.33      24.78      26.97
C      11.21      24.34      27.70
C       9.95      24.15      27.07
C       9.88      24.43      25.68
C      11.00      24.85      24.95
C      12.99      11.37      40.20
C      14.11      11.01      42.29
C      15.25      10.58      40.22
C      14.10      11.07      43.72
C      12.90      11.18      44.45
C      12.89      11.26      45.86
C      14.10      11.26      46.61
C      15.31      11.16      45.87
C      15.31      11.06      44.46
C      11.84      11.76      39.45
C      10.56      11.84      40.05
C       9.42      12.19      39.30
C       9.52      12.51      37.93
C      10.80      12.46      37.33
C      11.93      12.08      38.07
C      16.39      10.15      39.49
C      16.58      10.52      38.14
C      17.69      10.07      37.40
C      18.66       9.21      37.97
C      18.47       8.84      39.32
C      17.37       9.31      40.07
C      13.42      25.39      10.59
C      14.53      25.84      12.67
C      15.64      26.29      10.60
C      14.53      25.84      14.10
C      13.58      25.11      14.85
C      13.58      25.12      16.26
C      14.53      25.87      17.00
C      15.47      26.61      16.25
C      15.48      26.59      14.84
C      12.28      24.94       9.85
C      11.09      24.52      10.49
C       9.97      24.09       9.74
C       9.99      24.05       8.33
C      11.19      24.46       7.69
C      12.30      24.89       8.43
C      16.78      26.74       9.86
C      16.71      27.00       8.47
C      17.83      27.44       7.75
C      19.09      27.62       8.37
C      19.17      27.36       9.76
C      18.04      26.93      10.49
C      15.19      11.23      54.45
C      14.08      11.61      52.37
C      12.95      12.07      54.43
C      14.09      11.54      50.94
C      15.06      10.77      50.24
C      15.05      10.68      48.84
C      14.10      11.36      48.05
C      13.14      12.14      48.74
C      13.13      12.22      50.15
C      16.34      10.83      55.20
C      17.62      10.76      54.60
C      18.76      10.42      55.35
C      18.66      10.10      56.73
C      17.38      10.16      57.33
C      16.25      10.53      56.58
C      11.81      12.51      55.16
C      11.62      12.13      56.51
C      10.50      12.57      57.25
C       9.53      13.44      56.68
C       9.73      13.81      55.33
C      10.83      13.35      54.58
N       5.38      27.95      40.93
N      23.36      12.76      45.91
N       5.05      19.19      45.78
N      22.89       3.97      41.11
N      23.07       3.71      16.50
N       5.10      18.90      11.53
N      23.40      12.46      11.66
N       5.56      27.68      16.32
N      14.86       0.94      34.48
N      13.59      30.80      34.48
N      14.68      31.20      36.49
N      13.17      16.66      52.56
N      15.37      15.90      52.58
N      14.28      16.26      50.56
N      13.61      30.68      22.95
N      14.86       0.89      22.96
N      14.69      31.13      20.95
N      15.28      14.96       4.88
N      13.10      15.79       4.85
N      14.18      15.40       6.87
N       5.22      22.67      29.94
N      23.20       7.47      34.91
N       4.90      13.91      34.79
N      23.64      29.36      30.12
N      23.83      29.09       5.50
N       4.94      13.62       0.53
N      23.25       7.18       0.66
N       5.41      22.40       5.32
N      15.61      26.33      23.49
N      13.43      25.52      23.48
N      14.52      25.91      25.49
N      13.01      11.38      41.56
N      15.21      10.61      41.59
N      14.13      10.98      39.57
N      13.45      25.40      11.96
N      15.61      26.27      11.96
N      14.53      25.85       9.95
N      15.17      11.22      53.09
N      12.99      12.04      53.06
N      14.07      11.65      55.09
