16

O       7.51       2.96      18.80
C       2.53       2.53      19.81
H       7.08       1.73      22.55
C       5.01       2.46      19.95
C       3.78       2.23      20.56
H       5.07       2.81      18.92
O       8.56       2.71      20.76
C       3.73       1.79      21.89
O       1.48       2.88      20.45
O       2.54       2.45      18.53
C       4.92       1.57      22.60
C       7.49       2.68      20.03
C       6.20       2.31      20.67
C       6.15       1.85      22.00
H       4.88       1.21      23.62
H       2.77       1.62      22.37
