24

N       9.14       9.58      12.37
N      11.20      18.73      11.88
H      11.18       9.52      12.77
H      11.52      11.95      12.55
H       7.27      12.32      11.78
H       7.11       9.87      12.01
H       8.62      14.34      11.76
H      11.59      13.98      12.53
H      12.99      15.90      12.27
H      13.24      18.36      11.95
C      10.34      10.18      12.53
C      10.52      11.54      12.41
C       9.42      12.37      12.14
C       8.17      11.74      11.99
H       9.13      18.91      11.85
C       8.07      10.36      12.12
C       9.53      13.82      12.04
C      10.67      14.51      12.27
H       8.70      16.48      12.15
C      10.82      15.95      12.18
C      12.10      16.53      12.17
C       9.95      18.20      11.94
C       9.72      16.84      12.09
C      12.25      17.89      12.00
