24

C      13.36       3.51       1.77
C      13.18       2.14       1.65
C      14.28       1.31       1.38
C      15.53       1.94       1.23
C      15.63       3.32       1.36
C      14.17      -0.13       1.28
C      13.03      -0.83       1.51
C      12.89      -2.27       1.42
C      11.60      -2.84       1.41
C      11.45      -4.21       1.24
H      12.52       4.16       2.01
N      14.56       4.11       1.62
H      16.43       1.37       1.02
H      12.18       1.74       1.79
H      15.08      -0.66       1.00
H      12.12      -0.30       1.77
H      10.71      -2.22       1.51
C      13.98      -3.16       1.33
H      16.59       3.82       1.25
H      15.00      -2.80       1.39
H      10.47      -4.68       1.19
H      14.57      -5.23       1.09
C      13.75      -4.52       1.18
N      12.51      -5.05       1.12
