24

N      20.76      10.56       8.79
N      29.72      13.36       8.29
C      21.88       9.81       8.94
C      23.15      10.34       8.83
C      23.32      11.71       8.55
C      22.15      12.48       8.41
H      21.73       8.77       9.19
C      20.90      11.88       8.53
H      24.00       9.68       8.96
H      19.99      12.46       8.43
C      24.63      12.34       8.45
H      22.19      13.55       8.19
H      24.62      13.39       8.18
C      25.80      11.70       8.68
H      25.79      10.64       8.94
C      27.12      12.30       8.60
C      28.26      11.47       8.58
C      27.34      13.69       8.51
H      28.16      10.39       8.68
C      29.52      12.03       8.41
H      26.52      14.40       8.56
C      28.63      14.17       8.35
H      30.41      11.41       8.37
H      28.84      15.24       8.26
