31

C      15.93      11.91       1.31
H      13.33      12.22      -0.12
O      13.95      12.54      -3.34
N      15.21      12.94      -0.89
O      11.95      12.37      -2.29
O      13.42      16.02      -0.94
C      14.90      10.35       2.87
C      15.03      11.29       3.91
C      15.68      12.51       3.66
C      16.11      12.81       2.36
H      15.26       9.91       0.81
H      17.16      12.93      -0.14
C      16.29      12.26      -0.12
H      16.61      13.77       2.20
H      14.29      11.06      -1.07
C      14.89      14.26      -0.32
H      14.22      14.20       0.55
C      14.29      15.20      -1.37
O      14.77       8.11       2.22
C      13.17      12.38      -2.28
C      15.36      10.67       1.59
H      16.56      11.36      -0.68
C      13.98      12.11      -1.00
O      14.71      15.11      -2.57
H      15.83      14.73       0.01
O      15.44      13.29       5.90
C      14.33       8.96       3.05
C      15.99      13.48       4.77
O      16.81      14.42       4.48
O      13.47       8.75       3.98
H      14.68      11.06       4.91
