22

Cr       9.30       7.37      14.14
Cr      12.73       7.33      14.14
Cr      10.98       4.37      14.14
O      12.36       4.08      12.62
O      10.09       8.49      12.75
O      13.31       6.08      12.75
O       9.62       4.49      12.75
O      11.01       6.35      14.14
C      11.14       8.90      16.13
C      13.14       4.97      16.13
C       8.74       5.20      16.13
C      11.17       8.94      12.19
C      13.16       4.92      12.19
C       8.68       5.20      12.19
O       8.35       6.30      15.65
O      12.29       8.68      15.65
O      12.38       4.08      15.65
O      10.08       8.47      15.56
O      13.30       6.10      15.56
O       9.64       4.49      15.56
O       8.36       6.32      12.62
O      12.30       8.67      12.62
