22

Cr       5.61       8.34       0.00
Cr       3.71       5.47      -0.01
Cr       7.13       5.26       0.02
C       3.29       7.69      -1.99
C       5.45       3.78      -1.97
C       7.75       7.59      -1.92
C       3.28       7.71       1.92
C       5.40       3.73       1.92
C       7.75       7.61       1.96
O       7.01       8.52      -1.50
O       4.26       8.30      -1.41
O       2.85       6.58      -1.53
O       4.41       4.29      -1.40
O       6.60       3.93      -1.50
O       7.79       6.44      -1.38
O       7.01       8.54       1.52
O       4.25       8.33       1.39
O       2.84       6.60       1.49
O       4.40       4.32       1.39
O       6.59       3.95       1.52
O       7.78       6.46       1.42
O       5.48       6.36       0.00
