22

Cr       0.15       7.61       9.40
Cr      -1.65      10.53       9.41
Cr       1.77      10.64       9.39
C      -2.12       8.34      11.36
C       0.12      12.23      11.32
C       2.40       8.25      11.28
C      -2.14       8.34       7.44
C       0.10      12.11       7.41
C       2.23       8.29       7.41
O       1.56       7.38      10.90
O      -1.19       7.68      10.80
O      -2.54       9.45      10.92
O      -0.90      11.69      10.80
O       1.30      11.98      10.90
O       2.40       9.44      10.78
O       1.52       7.36       7.88
O      -1.22       7.67       8.01
O      -2.57       9.43       7.90
O      -0.93      11.67       8.01
O       1.27      11.96       7.88
O       2.37       9.42       7.99
O       0.09       9.59       9.40
