20

Zn       4.08       6.91       7.86
Zn       1.98       5.69       6.29
C       3.28       8.08       5.19
C       1.46       7.81       8.53
C       6.18       7.78       9.90
C       6.88       7.75       7.69
C       2.77       4.52       8.96
C       4.60       4.79       5.62
C      -0.13       4.82       4.25
C      -0.82       4.85       6.46
N       5.89       7.59       8.59
N       0.17       5.02       5.55
O       2.34       7.26       4.99
O       4.05       8.15       6.21
O       1.07       7.09       7.55
O       2.66       8.02       8.88
O       3.72       5.35       9.16
O       2.01       4.45       7.94
O       4.99       5.52       6.60
O       3.39       4.58       5.27
