50

C       5.93      -2.36      11.76
C       4.96      -1.29      11.38
C       4.45      -1.27      10.09
C       3.49      -0.31       9.75
C       3.09       0.62      10.68
C       3.61       0.63      11.99
C       4.54      -0.36      12.33
C       3.58       1.63      14.27
C       2.95       0.57      15.15
C       3.70      -0.14      16.08
C       1.58       0.31      15.09
C       2.88      -0.32       8.37
C      -1.23       1.61      20.25
C      -0.27       0.53      20.64
C       0.25       0.52      21.93
C       1.20      -0.44      22.26
C       1.60      -1.38      21.33
C       1.08      -1.39      20.03
C       0.16      -0.40      19.68
C       1.11      -2.38      17.74
C       1.74      -1.32      16.87
C       0.99      -0.62      15.93
C       3.11      -1.06      16.93
C       1.81      -0.44      23.64
H       4.74      -1.89       9.46
H       2.46       1.27      10.43
H       4.88      -0.39      13.20
H       3.36       2.50      14.63
H       4.55       1.53      14.32
H       4.62       0.02      16.14
H       1.06       0.76      14.47
H       2.69       2.22      12.58
H      -0.05       1.13      22.56
H       2.23      -2.02      21.58
H      -0.18      -0.36      18.82
H       1.34      -3.25      17.38
H       0.15      -2.29      17.69
H       0.08      -0.77      15.87
H       3.63      -1.52      17.54
H       2.01      -2.98      19.43
N       3.20       1.60      12.87
N       1.49      -2.35      19.14
O       6.22      -2.44      12.98
O       6.40      -3.07      10.88
O       3.31      -1.22       7.59
O       2.02       0.49       8.06
O      -1.53       1.68      19.04
O      -1.71       2.32      21.13
O       1.39       0.47      24.43
O       2.68      -1.25      23.96
