1088

H       4.79      16.86      48.59
H       5.38      17.48      44.48
H       7.91      15.03      52.81
H       7.30      14.37      48.70
H       9.18      15.76      46.82
H       6.19      18.79      50.35
H      15.87      22.60      20.80
H      15.27      21.98      16.68
H      12.74      24.43      25.01
H      13.35      25.08      20.90
H      11.47      23.70      19.03
H      14.47      20.66      22.55
H      33.54      34.61       6.82
H      33.02      35.34       2.72
H      35.56      37.65      11.10
H      36.20      37.10       6.98
H      35.00      38.96       5.13
H      31.78      35.96       8.65
H      28.20       4.85      34.62
H      28.72       4.12      30.51
H      26.18       1.81      38.90
H      25.54       2.36      34.78
H      26.74       0.50      32.93
H      29.97       3.50      36.45
H      15.68      16.73      34.79
H      15.01      17.36      38.90
H      12.62      14.76      30.57
H      13.23      14.18      34.69
H      11.28      15.55      36.44
H      14.28      18.59      32.92
H       4.97      22.72       7.00
H       5.64      22.09      11.10
H       8.03      24.69       2.78
H       7.42      25.28       6.90
H       9.37      23.91       8.64
H       6.37      20.87       5.12
H      28.07      34.80      20.98
H      28.65      35.60      25.06
H      25.92      37.77      16.70
H      25.35      37.22      20.82
H      26.54      39.14      22.53
H      29.76      36.14      19.04
H      33.67       4.66      48.77
H      33.09       3.86      52.86
H      35.82       1.69      44.49
H      36.40       2.24      48.62
H      35.21       0.32      50.32
H      31.98       3.31      46.83
H      36.53      22.39       7.21
H      35.79      21.86      11.31
H      33.45      24.41       2.93
H      34.02      25.07       7.05
H      32.19      23.88       8.91
H      35.20      20.65       5.38
H      25.22      17.07      35.00
H      25.95      17.60      39.11
H      28.29      15.05      30.73
H      27.73      14.39      34.85
H      29.55      15.58      36.71
H      26.54      18.81      33.17
H       7.51       4.81      48.87
H       7.98       4.09      52.99
H       5.65       1.61      44.56
H       4.87       2.13      48.66
H       6.03       0.46      50.59
H       9.24       3.65      47.07
H      13.14      34.65      21.08
H      12.67      35.36      25.19
H      15.00      37.84      16.77
H      15.78      37.32      20.87
H      14.62      39.00      22.80
H      11.41      35.81      19.28
H      25.40      22.51      20.86
H      26.21      21.91      16.77
H      28.40      24.67      25.14
H      27.83      25.26      21.01
H      29.73      24.08      19.30
H      26.73      20.85      22.81
H      36.35      16.95      48.65
H      35.53      17.54      44.57
H      33.35      14.79      52.93
H      33.91      14.20      48.81
H      32.02      15.38      47.10
H      35.02      18.61      50.60
H      13.26       4.63      34.77
H      12.73       3.83      30.68
H      15.26       1.56      39.10
H      15.97       2.03      34.99
H      14.82       0.28      33.19
H      11.60       3.45      36.71
H       7.39      34.83       6.98
H       7.93      35.63       2.88
H       5.39      37.90      11.31
H       4.68      37.43       7.19
H       5.83      39.18       5.40
H       9.05      36.00       8.91
H      12.50      14.97      39.24
H       9.37      18.68      45.25
H       7.02      15.82      43.25
H      12.01      19.13      38.89
H      12.21      18.31      43.29
H      11.42      19.44      44.39
H      11.30      19.69      42.65
H      11.23      14.68      42.47
H      11.56      13.73      41.01
H       9.92      14.29      41.33
H       8.15      24.49      11.44
H      11.29      20.78      17.46
H      13.63      23.64      15.46
H       8.64      20.33      11.10
H       8.44      21.15      15.50
H       9.23      20.02      16.59
H       9.35      19.77      14.85
H       9.42      24.78      14.67
H       9.09      25.72      13.21
H      10.73      25.17      13.53
H      35.71       1.25      53.02
H      32.09      39.35       3.61
H      34.77      36.90       1.50
H      31.51       1.02      52.94
H      32.54       1.11       1.67
H      31.42       0.37       2.81
H      31.09       0.27       1.08
H      36.12      41.05       0.64
H      36.99       0.23      54.72
H      36.36      39.72      55.07
H      26.04      38.20      25.23
H      29.66       0.10      31.40
H      26.97       2.56      29.29
H      30.24      38.44      25.15
H      29.21      38.35      29.46
H      30.33      39.09      30.60
H      30.66      39.19      28.87
H      25.63      39.50      28.43
H      24.76      39.23      26.92
H      25.39      40.83      27.27
H      28.81      24.56      16.61
H      31.78      20.96      10.42
H      34.25      23.62      12.54
H      29.03      20.36      16.68
H      28.93      21.41      12.37
H      29.67      20.30      11.22
H      29.77      19.96      12.95
H      30.10      24.98      13.41
H      29.83      25.85      14.92
H      31.43      25.21      14.56
H      32.94      14.90      44.41
H      29.97      18.50      38.22
H      27.49      15.83      40.33
H      32.71      19.10      44.47
H      32.81      18.04      40.16
H      32.08      19.16      39.02
H      31.97      19.50      40.74
H      31.65      14.47      41.21
H      31.92      13.61      42.72
H      30.31      14.24      42.36
H       5.30      38.19       2.70
H       8.92       0.09      52.13
H       6.20       2.54      54.20
H       9.49      38.49       2.81
H       8.48      38.34      54.08
H       9.60      39.09      52.94
H       9.92      39.20      54.67
H       4.89      39.47      55.08
H       4.01      39.19       0.99
H       4.63      40.80       0.64
H      15.36       1.27      30.49
H      11.73      39.37      24.33
H      14.45      36.92      26.40
H      11.16       0.97      30.61
H      12.17       1.11      26.29
H      11.05       0.37      25.15
H      10.73       0.25      26.88
H      15.76      41.08      27.28
H      16.64       0.27      28.79
H      16.03      39.75      28.43
H      33.10      35.31      11.49
H      29.88      39.04      17.43
H      27.58      36.11      15.49
H      32.49      39.45      11.05
H      32.72      38.69      15.48
H      31.92      39.83      16.56
H      31.79      40.05      14.81
H      31.83      35.04      14.72
H      32.18      34.08      13.28
H      30.53      34.61      13.59
H      28.64       4.15      39.29
H      31.86       0.41      45.23
H      34.16       3.35      43.28
H      29.26       0.01      38.85
H      29.02       0.76      43.27
H      29.83      40.72      44.35
H      29.96      40.50      42.61
H      29.92       4.41      42.51
H      29.56       5.37      41.08
H      31.22       4.85      41.38
H      15.08      21.95      25.38
H      11.36      18.73      31.33
H      14.26      16.42      29.35
H      10.93      21.38      24.97
H      11.71      21.58      29.39
H      10.58      20.78      30.47
H      10.35      20.66      28.73
H      15.35      20.66      28.61
H      16.31      21.01      27.17
H      15.77      19.36      27.47
H       5.57      17.51      53.18
H       9.30      20.73       3.54
H       6.39      23.03       1.56
H       9.72      18.08      52.76
H       8.94      17.88       1.60
H      10.08      18.68       2.68
H      10.30      18.80       0.93
H       5.30      18.79       0.81
H       4.35      18.44      54.96
H       4.88      20.09      55.26
H       8.21       4.20      44.36
H      11.27       0.56      38.24
H      13.69       3.31      40.31
H       8.54       0.01      44.51
H       8.42       0.99      40.18
H       9.17      40.96      39.06
H       9.28      40.66      40.79
H       9.51       4.60      41.16
H       9.21       5.48      42.65
H      10.83       4.88      42.31
H      12.44      35.25      16.57
H       9.38      38.90      10.45
H       6.96      36.15      12.52
H      12.11      39.44      16.72
H      12.24      38.47      12.39
H      11.48      39.59      11.26
H      11.37      39.90      12.99
H      11.14      34.86      13.36
H      11.44      33.98      14.86
H       9.82      34.58      14.52
H      25.91      17.52      30.36
H      29.64      20.71      24.39
H      26.73      23.02      26.35
H      30.06      18.09      30.76
H      29.28      17.87      26.35
H      30.41      18.67      25.26
H      30.64      18.80      27.00
H      25.64      18.78      27.13
H      24.68      18.44      28.57
H      25.22      20.09      28.26
H      35.83      21.94       2.56
H      32.11      18.75      52.18
H      35.02      16.43      54.15
H      31.68      21.37       2.97
H      32.47      21.59      54.14
H      31.33      20.79      53.06
H      31.10      20.66      54.80
H      36.11      20.67      54.92
H      37.06      21.02       0.78
H      36.53      19.37       0.47
H       5.90      12.68      49.89
H       9.52       6.28      49.72
H       6.42       6.31      52.57
H       9.46      12.97      52.12
H       9.85       9.97      49.54
H       9.67       8.60      48.44
H      10.92       8.57      49.71
H       6.16       9.34      49.10
H       4.95      10.61      49.29
H       5.15       9.40      50.56
H      14.76      26.78      22.09
H      11.13      33.18      21.93
H      14.23      33.14      24.78
H      11.20      26.49      24.32
H      10.80      29.49      21.74
H      10.98      30.86      20.65
H       9.74      30.88      21.91
H      14.49      30.12      21.30
H      15.70      28.85      21.49
H      15.50      30.05      22.76
H      37.94      35.71       8.15
H       3.19      39.43       8.05
H       3.19      36.30      10.87
H      37.58      39.23      10.44
H      40.59      39.71       7.86
H       0.87      39.56       6.76
H       0.87      40.79       8.04
H       0.18      36.05       7.36
H      40.02      34.81       7.53
H       0.13      35.02       8.81
H      23.81       3.75      35.94
H      17.46       0.02      35.85
H      17.46       3.15      38.67
H      24.16       0.23      38.23
H      21.16      40.84      35.65
H      19.78      40.99      34.56
H      19.78      39.76      35.84
H      20.47       3.41      35.16
H      21.72       4.64      35.32
H      20.52       4.44      36.60
H      14.70      12.51      33.51
H      11.21       6.06      33.94
H      14.23       6.07      31.01
H      11.11      12.68      31.32
H      10.81       9.75      34.01
H      11.05       8.43      35.15
H       9.77       8.33      33.92
H      14.49       9.20      34.41
H      15.68      10.47      34.16
H      15.48       9.23      32.93
H       5.95      26.95       5.72
H       9.44      33.39       6.15
H       6.42      33.39       3.21
H       9.54      26.77       3.53
H       9.84      29.71       6.22
H       9.60      31.03       7.36
H      10.88      31.13       6.13
H       6.16      30.26       6.62
H       4.97      28.98       6.37
H       5.17      30.23       5.14
H      23.64      35.77      19.68
H      17.24      39.36      20.02
H      17.22      36.30      17.13
H      23.88      39.31      17.42
H      20.94      39.70      20.11
H      19.60      39.49      21.24
H      19.53      40.76      20.00
H      20.33      36.05      20.57
H      21.59      34.83      20.34
H      20.34      35.03      19.11
H      38.10       3.69      47.47
H       3.41       0.10      47.82
H       3.44       3.16      44.92
H      37.87       0.15      45.21
H      40.81      40.85      47.90
H       1.05      41.06      49.04
H       1.12      39.79      47.79
H       0.32       3.41      48.36
H      40.16       4.63      48.14
H       0.31       4.43      46.90
H      35.37      26.83       5.88
H      31.54      33.11       5.97
H      34.65      33.15       3.14
H      31.85      26.40       3.61
H      31.32      29.41       6.18
H      31.46      30.79       7.26
H      30.22      30.77       5.99
H      34.97      30.16       6.65
H      36.23      28.93       6.49
H      36.00      30.12       5.20
H      26.38      12.63      33.67
H      30.21       6.35      33.76
H      27.09       6.31      30.94
H      29.90      13.05      31.40
H      30.42      10.05      33.97
H      30.29       8.67      35.06
H      31.53       8.69      33.79
H      26.77       9.30      34.45
H      25.51      10.53      34.28
H      25.74       9.34      33.00
H      26.42      26.99      22.17
H      30.11      33.32      21.81
H      27.07      33.40      24.72
H      29.97      26.69      24.41
H      30.39      29.62      21.72
H      30.20      30.96      20.59
H      31.48      31.01      21.82
H      26.75      30.29      21.28
H      25.51      29.06      21.51
H      25.74      30.30      22.75
H      35.33      12.47      49.96
H      31.63       6.14      49.61
H      34.67       6.06      52.52
H      31.78      12.77      52.20
H      31.35       9.84      49.51
H      31.54       8.50      48.38
H      30.27       8.45      49.62
H      35.00       9.16      49.08
H      36.24      10.40      49.30
H      36.01       9.16      50.54
H      17.40      15.37      36.00
H      23.74      19.10      35.84
H      23.74      16.01      38.70
H      17.04      18.93      38.21
H      20.05      19.37      35.65
H      21.42      19.20      34.56
H      21.42      20.46      35.81
H      20.74      15.69      35.22
H      19.49      14.46      35.41
H      20.68      14.68      36.69
H       3.25      24.09       8.20
H      38.00      20.36       8.05
H      38.00      23.45      10.91
H       3.61      20.52      10.41
H       0.60      20.09       7.85
H      40.32      20.25       6.76
H      40.32      19.00       8.02
H      41.01      23.77       7.43
H       1.16      25.00       7.61
H      41.06      24.77       8.89
H       3.09      15.42      47.41
H      37.80      19.01      47.83
H      37.76      16.01      44.89
H       3.33      19.02      45.22
H       0.40      19.36      47.91
H      40.16      19.13      49.05
H      40.09      20.42      47.82
H      40.88      15.68      48.29
H       1.04      14.47      48.05
H      40.89      14.70      46.82
H      17.56      24.03      19.61
H      23.95      20.45      20.04
H      23.98      23.45      17.09
H      17.32      20.44      17.43
H      20.26      20.10      20.12
H      21.59      20.33      21.25
H      21.66      19.04      20.03
H      20.87      23.78      20.50
H      19.61      24.99      20.25
H      20.85      24.76      19.02
C       6.81      16.83      47.99
C       5.42      16.96      47.79
C       4.88      17.19      46.51
C       5.77      17.32      45.42
C       7.17      17.19      45.58
C       7.68      16.91      46.88
C       7.25      16.40      49.27
C       7.33      17.28      50.37
C       7.62      16.78      51.67
C       7.77      15.39      51.86
C       7.64      14.49      50.78
C       7.40      15.01      49.49
C      13.85      22.63      20.20
C      15.23      22.49      20.00
C      15.78      22.27      18.71
C      14.88      22.14      17.62
C      13.48      22.27      17.79
C      12.97      22.55      19.09
C      13.40      23.06      21.48
C      13.32      22.17      22.58
C      13.03      22.67      23.87
C      12.88      24.07      24.06
C      13.01      24.97      22.99
C      13.25      24.44      21.69
C      33.74      36.63       6.27
C      33.48      35.27       6.04
C      33.22      34.78       4.74
C      33.22      35.69       3.66
C      33.46      37.07       3.86
C      33.75      37.53       5.17
C      34.18      37.03       7.56
C      33.30      37.08       8.67
C      33.80      37.36       9.97
C      35.19      37.51      10.16
C      36.10      37.41       9.07
C      35.57      37.18       7.78
C      28.00       2.82      34.07
C      28.27       4.19      33.84
C      28.53       4.68      32.54
C      28.52       3.77      31.46
C      28.29       2.39      31.66
C      27.99       1.93      32.97
C      27.56       2.43      35.36
C      28.45       2.37      36.47
C      27.94       2.10      37.76
C      26.55       1.94      37.95
C      25.65       2.05      36.87
C      26.18       2.28      35.58
C      13.66      16.65      35.37
C      15.04      16.83      35.59
C      15.56      17.09      36.87
C      14.65      17.21      37.95
C      13.26      17.03      37.76
C      12.77      16.72      36.47
C      13.23      16.20      34.09
C      13.15      17.07      32.97
C      12.88      16.55      31.68
C      12.77      15.15      31.51
C      12.91      14.26      32.60
C      13.12      14.81      33.89
C       6.99      22.80       7.57
C       5.61      22.63       7.79
C       5.09      22.37       9.08
C       6.00      22.25      10.16
C       7.39      22.42       9.96
C       7.88      22.74       8.67
C       7.41      23.26       6.29
C       7.50      22.39       5.18
C       7.77      22.90       3.88
C       7.88      24.31       3.72
C       7.74      25.20       4.81
C       7.53      24.65       6.09
C      27.83      36.82      21.51
C      28.14      35.47      21.75
C      28.44      35.00      23.05
C      28.45      35.93      24.11
C      28.15      37.30      23.90
C      27.81      37.73      22.59
C      27.36      37.19      20.22
C      28.23      37.26      19.10
C      27.71      37.51      17.80
C      26.31      37.63      17.63
C      25.42      37.51      18.73
C      25.97      37.31      20.02
C      33.92       2.63      49.30
C      33.60       3.99      49.54
C      33.30       4.46      50.84
C      33.30       3.53      51.91
C      33.59       2.16      51.69
C      33.94       1.72      50.39
C      34.38       2.27      48.01
C      33.51       2.20      46.89
C      34.03       1.94      45.59
C      35.44       1.83      45.43
C      36.32       1.95      46.52
C      35.77       2.15      47.81
C      34.51      22.61       7.76
C      35.87      22.33       7.99
C      36.36      22.06       9.29
C      35.45      22.07      10.37
C      34.07      22.32      10.17
C      33.61      22.62       8.86
C      34.12      23.05       6.47
C      34.06      22.16       5.36
C      33.77      22.66       4.07
C      33.60      24.05       3.88
C      33.70      24.95       4.96
C      33.94      24.43       6.25
C      27.24      16.85      35.56
C      25.88      17.13      35.79
C      25.39      17.40      37.09
C      26.30      17.39      38.17
C      27.68      17.14      37.97
C      28.14      16.84      36.65
C      27.63      16.41      34.26
C      27.68      17.30      33.16
C      27.97      16.80      31.86
C      28.15      15.41      31.67
C      28.04      14.50      32.76
C      27.80      15.03      34.05
C       7.28       2.79      49.43
C       7.56       4.15      49.66
C       7.80       4.65      50.96
C       7.78       3.74      52.04
C       7.54       2.36      51.85
C       7.26       1.90      50.53
C       6.90       2.38      48.13
C       7.80       2.41      47.03
C       7.35       2.09      45.73
C       5.99       1.81      45.51
C       5.06       1.80      46.58
C       5.54       2.08      47.88
C      13.37      36.67      21.64
C      13.09      35.30      21.87
C      12.85      34.81      23.17
C      12.87      35.71      24.25
C      13.11      37.10      24.05
C      13.39      37.56      22.74
C      13.75      37.07      20.33
C      12.85      37.04      19.24
C      13.30      37.36      17.93
C      14.67      37.65      17.72
C      15.59      37.66      18.79
C      15.11      37.38      20.09
C      27.42      22.78      20.33
C      26.07      22.45      20.08
C      25.61      22.13      18.79
C      26.53      22.13      17.72
C      27.90      22.45      17.94
C      28.33      22.80      19.24
C      27.79      23.24      21.62
C      27.85      22.37      22.74
C      28.12      22.88      24.04
C      28.25      24.29      24.20
C      28.13      25.17      23.10
C      27.92      24.63      21.82
C      34.32      16.68      48.12
C      35.68      17.01      47.88
C      36.14      17.33      46.58
C      35.21      17.33      45.52
C      33.85      17.01      45.73
C      33.41      16.66      47.03
C      33.96      16.22      49.41
C      33.89      17.09      50.53
C      33.63      16.58      51.83
C      33.50      15.17      51.99
C      33.62      14.28      50.90
C      33.83      14.83      49.61
C      13.53       2.61      34.24
C      13.21       3.96      34.00
C      12.92       4.43      32.70
C      12.93       3.50      31.63
C      13.24       2.14      31.84
C      13.57       1.70      33.15
C      13.95       2.23      35.55
C      13.06       2.24      36.65
C      13.52       1.97      37.96
C      14.91       1.74      38.16
C      15.82       1.73      37.07
C      15.31       1.97      35.77
C       7.12      36.85       6.45
C       7.44      35.50       6.20
C       7.74      35.03       4.90
C       7.72      35.95       3.83
C       7.41      37.32       4.05
C       7.08      37.76       5.36
C       6.70      37.23       7.75
C       7.60      37.22       8.85
C       7.13      37.49      10.17
C       5.74      37.71      10.36
C       4.84      37.73       9.28
C       5.34      37.49       7.98
C      12.40      17.04      38.88
C      11.82      18.24      39.35
C      10.68      17.09      41.12
C      11.23      15.84      40.69
C      12.09      15.85      39.56
C       9.83      17.23      42.25
C      10.10      18.09      43.35
C       9.19      18.08      44.44
C       8.04      17.26      44.45
C       7.82      16.45      43.31
C      11.32      18.93      43.43
C      10.97      14.56      41.41
C       8.26      22.42      11.09
C       8.83      21.22      11.56
C       9.97      22.37      13.33
C       9.42      23.62      12.90
C       8.57      23.61      11.77
C      10.82      22.23      14.46
C      10.55      21.37      15.56
C      11.46      21.38      16.65
C      12.61      22.20      16.66
C      12.84      23.00      15.51
C       9.33      20.53      15.63
C       9.68      24.89      13.62
C      33.61       1.27      52.79
C      32.42       0.77      53.34
C      33.61      40.64      55.03
C      34.85       0.02      54.52
C      34.83       0.88      53.40
C      33.47      39.79       0.57
C      32.67      40.08       1.71
C      32.66      39.16       2.78
C      33.43      37.97       2.75
C      34.18      37.73       1.58
C      31.88       0.25       1.82
C      36.15      40.79      55.16
C      28.13      38.19      25.00
C      29.33      38.69      25.55
C      28.14      39.91      27.23
C      26.89      39.44      26.73
C      26.92      38.57      25.60
C      28.27      40.76      28.37
C      29.08      40.47      29.50
C      29.08       0.30      30.58
C      28.32       1.49      30.54
C      27.56       1.73      29.38
C      29.86      39.21      29.62
C      25.59      39.77      27.37
C      28.79      22.47      16.84
C      29.28      21.27      16.28
C      30.51      22.47      14.60
C      30.04      23.71      15.11
C      29.18      23.68      16.23
C      31.35      22.34      13.46
C      31.05      21.53      12.32
C      31.98      21.53      11.25
C      33.17      22.29      11.28
C      33.42      23.04      12.45
C      29.79      20.76      12.21
C      30.36      25.01      14.47
C      32.96      16.99      44.63
C      32.46      18.19      44.08
C      31.24      16.99      42.39
C      31.71      15.75      42.90
C      32.57      15.77      44.03
C      30.39      17.12      41.25
C      30.69      17.92      40.12
C      29.77      17.93      39.04
C      28.58      17.17      39.08
C      28.33      16.42      40.25
C      31.96      18.70      40.00
C      31.38      14.44      42.26
C       7.39      38.21       2.95
C       8.58      38.72       2.41
C       7.39      39.92       0.70
C       6.14      39.43       1.20
C       6.17      38.57       2.33
C       7.52      40.76      55.15
C       8.33      40.46      54.03
C       8.34       0.28      52.95
C       7.56       1.47      52.96
C       6.80       1.71      54.12
C       9.13      39.21      53.92
C       4.84      39.74       0.55
C      13.26       1.25      30.74
C      12.07       0.73      30.20
C      13.27      40.63      28.50
C      14.51       0.03      29.00
C      14.48       0.89      30.12
C      13.14      39.79      27.36
C      12.32      40.09      26.23
C      12.31      39.17      25.15
C      13.09      37.99      25.17
C      13.85      37.74      26.33
C      11.53       0.25      26.13
C      15.81      40.81      28.34
C      32.94      37.37      11.09
C      32.32      38.56      11.53
C      31.22      37.41      13.33
C      31.80      36.18      12.92
C      32.66      36.18      11.80
C      30.36      37.56      14.46
C      30.62      38.44      15.55
C      29.71      38.43      16.64
C      28.58      37.58      16.66
C      28.37      36.76      15.53
C      31.83      39.30      15.60
C      31.57      34.91      13.67
C      28.81       2.09      38.89
C      29.42       0.90      39.33
C      30.53       2.04      41.12
C      29.95       3.28      40.72
C      29.08       3.27      39.59
C      31.38       1.90      42.25
C      31.13       1.02      43.34
C      32.03       1.03      44.43
C      33.17       1.88      44.45
C      33.38       2.70      43.32
C      29.92       0.16      43.40
C      30.17       4.55      41.46
C      13.02      21.81      25.00
C      11.82      21.21      25.44
C      12.97      20.08      27.23
C      14.21      20.65      26.82
C      14.21      21.52      25.70
C      12.82      19.22      28.35
C      11.95      19.47      29.45
C      11.97      18.56      30.53
C      12.80      17.42      30.54
C      13.61      17.21      29.41
C      11.10      20.69      29.52
C      15.48      20.41      27.55
C       7.64      17.65      52.79
C       8.83      18.25      53.23
C       7.68      19.38      55.02
C       6.44      18.81      54.61
C       6.45      17.94      53.49
C       7.83      20.24       0.55
C       8.70      19.98       1.65
C       8.69      20.90       2.74
C       7.85      22.04       2.75
C       7.04      22.24       1.61
C       9.55      18.77       1.72
C       5.17      19.04      55.35
C       8.24       2.12      44.62
C       8.77       0.92      44.10
C       9.97       2.11      42.39
C       9.47       3.35      42.88
C       8.60       3.33      44.00
C      10.82       1.98      41.26
C      10.53       1.15      40.14
C      11.45       1.15      39.06
C      12.63       1.94      39.08
C      12.86       2.71      40.23
C       9.28       0.35      40.03
C       9.77       4.65      42.22
C      12.41      37.34      16.83
C      11.88      38.54      16.31
C      10.68      37.35      14.60
C      11.18      36.11      15.08
C      12.05      36.13      16.21
C       9.83      37.48      13.46
C      10.12      38.31      12.34
C       9.20      38.31      11.27
C       8.02      37.52      11.28
C       7.79      36.75      12.44
C      11.37      39.11      12.24
C      10.88      34.81      14.42
C      27.98      17.66      30.74
C      29.17      18.26      30.29
C      28.02      19.38      28.50
C      26.78      18.81      28.92
C      26.79      17.95      30.04
C      28.16      20.23      27.37
C      29.03      19.97      26.28
C      29.02      20.88      25.19
C      28.18      22.02      25.17
C      27.37      22.23      26.31
C      29.89      18.76      26.22
C      25.51      19.04      28.18
C      33.76      21.80       2.95
C      32.57      21.19       2.50
C      33.73      20.08       0.71
C      34.96      20.65       1.12
C      34.96      21.51       2.25
C      33.58      19.22      55.17
C      32.71      19.48      54.07
C      32.72      18.58      52.98
C      33.56      17.44      52.97
C      34.37      17.23      54.10
C      31.85      20.70      54.01
C      36.24      20.42       0.39
C       7.66      13.07      50.98
C       8.69      12.43      51.70
C       7.81      10.26      51.21
C       6.72      10.83      50.50
C       6.67      12.24      50.40
C       8.03       8.87      51.25
C       8.95       8.20      50.40
C       8.90       6.78      50.37
C       7.99       6.05      51.15
C       7.14       6.78      52.01
C       9.89       8.88      49.47
C       5.69      10.00      49.82
C      12.99      26.39      23.18
C      11.96      27.03      23.90
C      12.84      29.20      23.41
C      13.93      28.62      22.70
C      13.98      27.21      22.61
C      12.62      30.59      23.46
C      11.70      31.26      22.60
C      11.75      32.67      22.57
C      12.67      33.41      23.36
C      13.51      32.68      24.22
C      10.76      30.58      21.68
C      14.96      29.45      22.03
C      37.51      37.45       9.27
C      38.13      38.48      10.00
C      40.32      37.64       9.50
C      39.76      36.56       8.77
C      38.36      36.48       8.67
C       0.61      37.89       9.56
C       1.27      38.82       8.71
C       2.69      38.80       8.69
C       3.43      37.89       9.47
C       2.71      37.02      10.32
C       0.58      39.77       7.80
C      40.61      35.55       8.08
C      24.23       2.01      37.06
C      23.61       0.98      37.80
C      21.43       1.81      37.29
C      21.98       2.90      36.56
C      23.39       2.97      36.47
C      20.04       1.57      37.35
C      19.38       0.63      36.51
C      17.96       0.66      36.48
C      17.22       1.57      37.26
C      17.94       2.44      38.11
C      20.07      40.78      35.59
C      21.13       3.91      35.87
C      12.91      12.85      32.43
C      11.88      12.17      31.74
C      12.80      10.03      32.29
C      13.90      10.64      32.97
C      13.93      12.05      33.02
C      12.60       8.63      32.29
C      11.72       7.97      33.19
C      11.80       6.56      33.27
C      12.71       5.82      32.48
C      13.52       6.54      31.57
C      10.79       8.67      34.12
C      14.95       9.84      33.66
C       7.74      26.61       4.63
C       8.77      27.29       3.95
C       7.85      29.43       4.50
C       6.76      28.82       5.17
C       6.72      27.41       5.22
C       8.05      30.83       4.50
C       8.93      31.49       5.40
C       8.85      32.90       5.48
C       7.94      33.64       4.68
C       7.13      32.92       3.78
C       9.86      30.79       6.32
C       5.70      29.61       5.86
C      24.01      37.52      18.56
C      23.35      38.55      17.85
C      21.19      37.68      18.41
C      21.78      36.59      19.11
C      23.19      36.53      19.17
C      19.80      37.90      18.41
C      19.15      38.80      19.29
C      17.73      38.75      19.36
C      16.98      37.84      18.57
C      17.70      37.01      17.69
C      19.85      39.74      20.21
C      20.97      35.56      19.82
C      37.74       1.94      46.35
C      38.40       0.91      45.65
C      40.55       1.78      46.21
C      39.96       2.87      46.91
C      38.55       2.92      46.96
C       0.85       1.56      46.20
C       1.51       0.66      47.09
C       2.92       0.71      47.15
C       3.67       1.61      46.37
C       2.96       2.45      45.48
C       0.80      40.81      48.00
C      40.77       3.89      47.62
C      33.63      26.37       4.77
C      32.58      26.97       4.03
C      33.39      29.17       4.53
C      34.49      28.64       5.25
C      34.58      27.23       5.36
C      33.12      30.55       4.47
C      32.17      31.20       5.31
C      32.17      32.62       5.33
C      33.07      33.37       4.54
C      33.95      32.66       3.70
C      31.25      30.49       6.23
C      35.48      29.51       5.94
C      28.12      13.09      32.56
C      29.16      12.49      31.83
C      28.36      10.29      32.32
C      27.26      10.82      33.05
C      27.16      12.23      33.15
C      28.63       8.90      32.26
C      29.57       8.26      33.11
C      29.57       6.84      33.13
C      28.67       6.08      32.34
C      27.80       6.79      31.49
C      30.50       8.96      34.03
C      26.26       9.95      33.73
C      28.17      26.59      23.27
C      29.21      27.23      23.98
C      28.37      29.40      23.42
C      27.27      28.83      22.73
C      27.19      27.42      22.67
C      28.62      30.79      23.43
C      29.53      31.43      22.54
C      29.50      32.84      22.48
C      28.61      33.61      23.27
C      27.77      32.91      24.16
C      30.45      30.71      21.62
C      26.26      29.66      22.03
C      33.58      12.87      51.07
C      32.53      12.23      51.77
C      33.37      10.06      51.22
C      34.47      10.63      50.52
C      34.55      12.04      50.47
C      33.12       8.67      51.23
C      32.22       8.03      50.34
C      32.24       6.62      50.27
C      33.13       5.85      51.06
C      33.97       6.55      51.96
C      31.30       8.75      49.42
C      35.49       9.80      49.82
C      16.97      17.13      37.08
C      17.59      18.18      37.80
C      19.78      17.33      37.32
C      19.23      16.23      36.61
C      17.82      16.15      36.51
C      21.17      17.58      37.37
C      21.83      18.50      36.52
C      23.24      18.47      36.49
C      23.99      17.57      37.28
C      23.27      16.72      38.14
C      21.13      19.43      35.59
C      20.08      15.21      35.94
C       3.68      22.32       9.28
C       3.06      21.28      10.00
C       0.87      22.13       9.53
C       1.42      23.23       8.82
C       2.83      23.31       8.72
C      40.58      21.88       9.58
C      39.92      20.96       8.72
C      38.50      20.98       8.70
C      37.76      21.89       9.49
C      38.48      22.74      10.35
C      40.61      20.03       7.79
C       0.57      24.25       8.15
C       3.46      17.20      46.33
C       2.80      18.25      45.64
C       0.65      17.36      46.18
C       1.24      16.26      46.86
C       2.65      16.20      46.91
C      40.35      17.58      46.18
C      39.70      18.47      47.08
C      38.28      18.42      47.16
C      37.53      17.52      46.36
C      38.24      16.71      45.45
C      40.41      19.39      48.01
C       0.42      15.22      47.54
C      17.19      22.25      18.54
C      17.85      21.21      17.85
C      20.01      22.10      18.39
C      19.42      23.20      19.06
C      18.00      23.26      19.12
C      21.40      21.87      18.39
C      22.05      20.99      19.29
C      23.46      21.04      19.36
C      24.21      21.93      18.57
C      23.50      22.75      17.66
C      21.34      20.07      20.22
C      20.23      24.24      19.75
N      11.00      18.21      40.43
N       8.70      16.47      42.28
N       9.65      21.25      12.64
N      11.95      22.99      14.49
N      32.46      41.03      54.41
N      34.18      38.63       0.57
N      29.28      39.52      26.62
N      27.56       0.83      28.36
N      30.11      21.32      15.21
N      32.52      23.04      13.47
N      31.63      18.14      43.01
N      29.23      16.42      41.26
N       8.53      39.54       1.33
N       6.80       0.82      55.14
N      12.12      41.01      29.13
N      13.85      38.64      27.35
N      31.51      38.53      12.61
N      29.25      36.77      14.50
N      30.24       0.92      40.41
N      32.49       2.68      42.30
N      11.85      20.38      26.52
N      13.60      18.10      28.38
N       8.80      19.08      54.31
N       7.05      21.36       0.59
N       9.60       0.97      43.03
N      11.97       2.71      41.25
N      11.05      38.49      15.23
N       8.68      36.75      13.46
N      29.14      19.08      29.21
N      27.38      21.35      27.33
N      32.60      20.38       1.41
N      34.36      18.11      55.13
N       8.74      11.08      51.77
N       7.17       8.14      52.01
N      11.91      28.38      23.97
N      13.48      31.32      24.21
N      39.49      38.55      10.08
N       1.36      37.03      10.30
N      22.26       0.90      37.87
N      19.29       2.43      38.10
N      11.85      10.81      31.72
N      13.46       7.89      31.54
N       8.80      28.64       3.92
N       7.19      31.56       3.74
N      21.99      38.60      17.82
N      19.05      37.05      17.66
N      39.75       0.86      45.62
N       1.60       2.41      45.45
N      32.49      28.32       3.96
N      33.96      31.31       3.71
N      29.26      11.14      31.75
N      27.79       8.15      31.51
N      29.29      28.58      24.01
N      27.79      31.55      24.19
N      32.46      10.87      51.80
N      33.96       7.91      51.98
N      18.94      18.25      37.87
N      21.91      16.73      38.13
N       1.71      21.21      10.08
N      39.83      22.73      10.34
N       1.45      18.30      45.61
N      39.59      16.74      45.42
N      19.20      21.16      17.82
N      22.15      22.71      17.63
O       9.01      16.69      47.08
O       7.14      18.62      50.18
O      11.64      22.77      19.29
O      13.51      20.84      22.39
O      34.06      38.84       5.41
O      31.96      36.91       8.47
O      27.68       0.62      33.20
O      29.79       2.55      36.27
O      11.43      16.51      36.27
O      13.35      18.40      33.17
O       9.22      22.95       8.48
O       7.30      21.05       5.38
O      27.51      39.05      22.37
O      29.57      37.07      19.30
O      34.24       0.41      50.16
O      32.18       2.38      47.09
O      32.30      22.94       8.63
O      34.25      20.82       5.56
O      29.44      16.51      36.42
O      27.49      18.63      33.35
O       6.96       0.58      50.31
O       9.12       2.69      47.26
O      13.69      38.87      22.51
O      11.53      36.77      19.46
O      29.64      23.11      19.46
O      27.66      21.03      22.54
O      32.11      16.34      47.26
O      34.09      18.43      50.33
O      13.86       0.39      33.37
O      11.74       2.52      36.42
O       6.79      39.07       5.58
O       8.91      36.93       8.63
