34

K      17.95      10.43       4.92
Cd      17.95       6.73       4.94
Cd      21.14      12.29       4.94
Cd      14.76      12.29       4.94
C      14.95       6.86       5.94
C      16.29       5.87       7.55
O      18.85       8.42       6.38
O      19.23      12.23       6.38
C      13.39       9.62       3.94
O      15.77      10.67       6.38
O      17.04       8.41       3.50
C      13.19      11.26       2.33
O      16.66      12.24       3.50
O      20.15      10.66       3.50
C      19.52      14.82       3.93
C      21.05      14.16       2.32
C      20.95       6.87       3.93
C      19.62       5.87       2.33
C      19.34       7.58       7.21
C      19.71      13.08       7.21
C      14.78      10.66       7.21
C      16.56       7.57       2.65
C      16.18      13.08       2.65
C      16.36      14.82       5.94
C      22.51       9.62       5.92
C      21.12      10.66       2.66
C      22.71      11.27       7.54
N      22.35      10.92       6.28
N      15.32      14.03       6.29
N      16.16       6.35       6.29
N      13.55      10.91       3.59
N      20.56      14.03       3.58
N      19.74       6.36       3.58
C      14.84      14.16       7.55
