22

Zn       6.54       6.11      31.06
Zn       8.26       3.92      29.46
Zn       9.15       6.89      29.53
Zn       6.58       6.29      27.80
C      11.05       4.66      29.64
C       4.19       6.90      29.36
O       4.61       6.38      30.44
O      10.83       5.90      29.73
O      10.17       3.75      29.72
C       8.81       8.01      26.88
O       7.59       5.72      29.38
O       4.87       6.99      28.27
O       9.60       7.77      27.79
O       6.44       4.73      26.58
O       7.58       7.72      26.87
O       6.91       8.16      31.02
O       7.25       2.60      30.53
O       9.13       8.38      30.80
O       6.03       4.13      31.61
C       7.97       8.75      31.26
C       6.42       2.97      31.43
C       5.90       5.11      25.45
