23

Zn       8.38      17.86       8.77
Zn       6.73      20.31      10.22
Zn       5.81      17.25      10.37
Zn       8.47      18.07      11.86
C       8.42      20.47       7.59
C       6.28      16.15       7.69
C       3.96      19.25       9.87
C      10.76      17.07      10.27
C       8.73      20.72      12.58
O       7.59      20.88       8.45
O       7.34      18.39      10.32
O       4.89      19.86       9.29
O      10.35      17.59      11.34
O       4.10      18.18      10.55
O      10.08      16.96       9.21
O       7.49      16.54       7.62
O       8.42      21.00      11.37
O       8.89      19.29       7.60
O       5.48      16.33       8.64
O       8.81      19.57      13.06
C       6.93      15.71      12.57
O       6.00      15.89      11.70
O       7.88      16.51      12.80
