25

H       1.65       9.62      10.61
H      -2.54       9.88      11.50
H      -1.14       7.44       8.21
H      -4.27       8.26      11.40
H      -6.55       7.63      10.60
H      -5.32       7.59       6.65
H      -2.99       8.23       7.27
N      -6.03       7.59       8.59
O       1.07       7.09       7.55
O       2.66       8.02       8.88
O       0.79      11.65      12.06
O      -0.92      10.75      13.28
C       1.46       7.81       8.53
C       0.36       8.44       9.34
C       0.63       9.33      10.39
C      -0.42       9.84      11.16
C      -1.74       9.46      10.88
C      -2.03       8.63       9.79
C      -0.97       8.12       9.04
C      -0.16      10.82      12.26
C      -3.42       8.29       9.40
C      -4.46       8.14      10.33
C      -5.73       7.78       9.90
C      -5.04       7.75       7.69
C      -3.74       8.10       8.05
