9

C      17.91      14.26       9.96
Zn      16.01      14.56      12.17
C      15.08      14.48      14.65
C      14.94      15.21       9.66
N      17.78      14.62      11.26
C      13.77      13.32      10.56
O      16.19      14.91      14.06
N      14.70      14.36      10.68
C      19.00      15.19      11.59
