12

O      17.81       2.03       9.42
Zn      15.99       1.51       8.87
N      15.36       2.52       7.29
C      17.96       3.30       9.72
N      16.33      -0.44       8.52
N      14.70       1.69      10.40
C      14.61       2.24       6.18
C      16.06       3.64       6.96
C      15.64      -1.53       8.06
C      17.56      -0.93       8.85
C      15.12       2.22      11.57
C      13.43       1.21      10.44
