12

C       4.15       3.38       5.62
Zn       5.72       0.93       5.61
N       7.01       0.75       4.07
C       3.75      -0.85       4.75
C       7.10       0.21       8.29
C       5.65      -1.19       7.51
O       3.90       0.42       5.05
C       6.07       3.98       6.41
N       6.35      -0.07       7.18
C       6.59       0.23       2.90
C       8.28       1.23       4.03
N       5.38       2.89       5.95
