12

C      17.91      14.26       9.96
O      17.63      13.24       7.24
N      20.10      15.17       6.02
Zn      19.45      13.89       7.49
N      20.75      12.35       7.59
C      17.19      12.71       6.12
N      19.11      14.56       9.42
C      19.53      15.11       4.81
C      20.99      16.18       6.18
C      20.35      11.11       7.23
C      22.02      12.40       8.06
C      19.81      15.15      10.44
