9

Zn      12.08       1.83       2.30
N      10.31       1.77       3.21
N      13.39       2.03       3.79
C      13.01       1.91      -0.18
C      13.15       1.17       4.81
C      14.32       3.06       3.91
C       9.09       1.19       2.88
C      10.18       2.12       4.51
O      11.90       1.48       0.41
