19

H      -1.18       2.68       4.25
N      -3.80       5.20       6.24
N      -0.96       5.20       6.24
H      -4.63       6.75       7.91
H      -1.55       7.93       7.76
H      -1.31       2.67       7.16
H      -4.66       2.75       4.07
H      -3.59       1.29       6.19
O      -3.72       7.07       7.75
O      -0.93       7.20       7.49
O      -1.01       2.25       6.31
O      -3.70       2.51       4.04
O      -3.68       2.26       6.37
C      -3.08       4.41       5.40
C      -3.08       6.15       6.95
C      -1.65       6.19       6.90
C      -1.68       4.41       5.40
C      -1.61       2.93       5.23
C      -3.14       2.92       5.26
