672

H      21.20      13.42       9.19
H      19.75      14.84       7.95
H      18.06      12.48      11.84
H      14.38      16.60       4.42
H      18.54      15.89       4.62
H      18.63      15.76       2.24
H      14.50      16.53       2.04
H      12.95      17.84       7.81
H      14.66      20.27      11.64
H      16.10      18.78      10.46
H      11.52      19.36       8.96
H      17.72      14.65       6.50
H      15.04      17.89       6.38
H      16.30      16.32      10.07
H      16.58      13.87      10.57
H      30.64      38.40       9.19
H      32.10      36.98       7.95
H      33.78      39.35      11.84
H      37.46      35.22       4.42
H      33.30      35.93       4.62
H      33.21      36.06       2.24
H      37.35      35.29       2.04
H      38.89      33.98       7.81
H      37.19      31.55      11.64
H      35.74      33.04      10.46
H      40.32      32.46       8.96
H      34.13      37.17       6.50
H      36.80      33.93       6.38
H      35.54      35.50      10.07
H      35.26      37.96      10.57
H      38.41      21.19      39.82
H      36.99      19.74      38.59
H      39.35      18.05      42.48
H      35.23      14.37      35.06
H      35.94      18.53      35.26
H      36.07      18.62      32.88
H      35.30      14.48      32.67
H      33.99      12.94      38.44
H      31.56      14.65      42.28
H      33.05      16.09      41.10
H      32.47      11.51      39.60
H      37.18      17.70      37.13
H      33.94      15.03      37.02
H      35.51      16.29      40.71
H      37.96      16.57      41.21
H      13.43      30.63      39.82
H      14.85      32.09      38.59
H      12.49      33.77      42.48
H      16.61      37.45      35.06
H      15.90      33.29      35.26
H      15.77      33.20      32.88
H      16.54      37.34      32.67
H      17.85      38.89      38.44
H      20.28      37.18      42.28
H      18.79      35.73      41.10
H      19.37      40.31      39.60
H      14.66      34.12      37.13
H      17.90      36.79      37.02
H      16.33      35.53      40.71
H      13.88      35.26      41.21
H      30.76      13.23      21.84
H      32.20      14.64      23.11
H      33.84      12.60      19.03
H      37.51      16.56      26.61
H      33.35      15.84      26.37
H      33.24      15.73      28.75
H      37.37      16.51      29.00
H      38.96      17.86      23.16
H      37.10      20.27      19.38
H      35.72      18.76      20.60
H      40.33      19.42      21.96
H      34.22      14.58      24.51
H      36.85      17.85      24.64
H      35.59      16.31      20.95
H      35.31      13.97      20.33
H      21.08      38.59      21.84
H      19.64      37.18      23.11
H      18.00      39.22      19.03
H      14.33      35.26      26.61
H      18.49      35.98      26.37
H      18.61      36.10      28.75
H      14.47      35.31      29.00
H      12.89      33.96      23.16
H      14.75      31.55      19.38
H      16.13      33.07      20.60
H      11.52      32.41      21.96
H      17.62      37.24      24.51
H      14.99      33.97      24.64
H      16.25      35.51      20.95
H      16.53      37.85      20.33
H      13.24      21.07      52.47
H      14.65      19.63      53.75
H      12.61      17.99      49.67
H      16.57      14.32      57.25
H      15.85      18.48      57.00
H      15.74      18.60      59.38
H      16.52      14.46      59.63
H      17.87      12.88      53.79
H      20.28      14.74      50.02
H      18.76      16.12      51.23
H      19.42      11.51      52.59
H      14.59      17.61      55.15
H      17.86      14.98      55.27
H      16.32      16.24      51.58
H      13.98      16.52      50.96
H      38.60      30.75      52.48
H      37.19      32.19      53.75
H      39.23      33.83      49.67
H      35.27      37.50      57.25
H      35.99      33.34      57.00
H      36.10      33.23      59.38
H      35.32      37.36      59.63
H      33.97      38.95      53.79
H      31.56      37.09      50.02
H      33.08      35.71      51.23
H      32.42      40.32      52.59
H      37.25      34.21      55.15
H      33.98      36.84      55.27
H      35.52      35.58      51.58
H      37.86      35.30      50.96
H       2.80      27.74      17.31
H       5.17      27.56      17.22
H      11.56      26.61      16.37
H       8.26      28.63      18.07
H       9.76      29.98      19.34
H      13.04      27.95      17.63
H      11.24      24.43      14.24
H       8.38      21.52      11.62
H       7.39      23.11      13.09
H      12.22      22.85      12.77
H       4.81      24.54      14.28
H       2.45      24.74      14.37
H      13.40      29.51      19.42
H       0.67      27.35      15.91
H      10.34      20.60      10.55
H      49.04      24.08      17.31
H      46.67      24.26      17.22
H      40.28      25.21      16.37
H      43.58      23.19      18.07
H      42.09      21.84      19.35
H      38.80      23.87      17.63
H      40.61      27.39      14.24
H      43.46      30.30      11.62
H      44.45      28.72      13.09
H      39.62      28.97      12.77
H      47.03      27.28      14.28
H      49.39      27.09      14.37
H      38.44      22.31      19.42
H       0.43      24.47      15.91
H      41.50      31.23      10.55
H      24.09       2.79      47.95
H      24.27       5.16      47.85
H      25.22      11.55      47.01
H      23.20       8.25      48.71
H      21.85       9.74      49.98
H      23.88      13.03      48.27
H      27.40      11.23      44.88
H      30.31       8.37      42.26
H      28.73       7.38      43.72
H      28.98      12.21      43.41
H      27.29       4.80      44.92
H      27.10       2.44      45.00
H      22.32      13.39      50.06
H      24.48       0.66      46.55
H      31.24      10.33      41.19
H      27.75      49.03      47.95
H      27.57      46.66      47.85
H      26.62      40.27      47.01
H      28.64      43.58      48.70
H      29.99      42.08      49.98
H      27.96      38.80      48.27
H      24.44      40.60      44.88
H      21.53      43.45      42.26
H      23.12      44.44      43.72
H      22.86      39.61      43.41
H      24.55      47.02      44.92
H      24.75      49.39      45.00
H      29.52      38.43      50.06
H      27.36       0.42      46.55
H      20.61      41.49      41.19
H      49.07      24.05      44.47
H      46.69      24.22      44.55
H      40.31      25.09      45.31
H      43.69      23.03      43.81
H      42.25      21.64      42.51
H      38.89      23.71      44.03
H      40.60      27.53      47.20
H      43.35      30.11      50.25
H      44.39      28.56      48.77
H      39.57      29.07      48.68
H      47.02      27.27      47.47
H      49.39      27.08      47.39
H      38.73      22.25      42.03
H       0.45      24.47      45.86
H      41.09      30.57      51.46
H       2.78      27.77      44.47
H       5.15      27.60      44.55
H      11.53      26.73      45.31
H       8.15      28.79      43.80
H       9.59      30.18      42.51
H      12.95      28.12      44.03
H      11.24      24.30      47.20
H       8.49      21.72      50.25
H       7.45      23.26      48.77
H      12.27      22.75      48.68
H       4.82      24.56      47.47
H       2.45      24.74      47.39
H      13.11      29.58      42.03
H       0.65      27.35      45.86
H      10.75      21.25      51.46
H      27.78      49.06      13.83
H      27.61      46.69      13.92
H      26.74      40.30      14.68
H      28.80      43.68      13.17
H      30.19      42.24      11.87
H      28.13      38.88      13.39
H      24.30      40.59      16.56
H      21.73      43.34      19.62
H      23.27      44.38      18.14
H      22.76      39.56      18.04
H      24.57      47.01      16.83
H      24.75      49.38      16.76
H      29.58      38.72      11.40
H      27.36       0.44      15.23
H      21.26      41.08      20.83
H      24.06       2.77      13.83
H      24.23       5.14      13.92
H      25.10      11.52      14.68
H      23.04       8.14      13.17
H      21.65       9.58      11.88
H      23.72      12.94      13.39
H      27.54      11.23      16.56
H      30.12       8.48      19.62
H      28.57       7.44      18.13
H      29.08      12.26      18.04
H      27.28       4.81      16.83
H      27.09       2.45      16.76
H      22.26      13.10      11.40
H      24.48       0.64      15.23
H      30.58      10.74      20.83
C      16.45      16.26       4.78
C      18.01      14.50       9.13
C      14.67      18.16       9.01
C      17.55      13.79      10.28
C      18.42      12.97      11.01
C      19.78      12.83      10.65
C      20.23      13.51       9.49
C      19.36      14.33       8.75
C      17.67      16.02       4.10
C      17.73      15.95       2.70
C      16.58      16.15       1.92
C      15.36      16.41       2.58
C      15.29      16.46       3.98
C      13.33      18.36       8.60
C      12.48      19.25       9.29
C      12.95      19.96      10.43
C      14.29      19.77      10.83
C      15.13      18.88      10.14
C      15.52      17.22       8.33
C      15.57      17.19       6.91
C      16.39      16.27       6.21
C      17.15      15.36       6.98
C      17.15      15.37       8.39
C      16.32      16.31       9.05
C      35.39      35.57       4.78
C      33.83      37.32       9.13
C      37.17      33.67       9.01
C      34.29      38.03      10.28
C      33.42      38.86      11.01
C      32.06      38.99      10.65
C      31.61      38.31       9.49
C      32.48      37.49       8.75
C      34.17      35.81       4.10
C      34.11      35.87       2.70
C      35.27      35.67       1.92
C      36.49      35.41       2.58
C      36.55      35.37       3.98
C      38.51      33.46       8.60
C      39.36      32.58       9.29
C      38.89      31.87      10.43
C      37.56      32.05      10.83
C      36.71      32.94      10.14
C      36.33      34.60       8.33
C      36.27      34.63       6.91
C      35.45      35.55       6.21
C      34.69      36.46       6.98
C      34.69      36.45       8.39
C      35.53      35.52       9.05
C      35.58      16.44      35.41
C      37.33      18.00      39.77
C      33.68      14.66      39.65
C      38.04      17.54      40.91
C      38.87      18.41      41.65
C      39.00      19.77      41.28
C      38.32      20.22      40.13
C      37.50      19.35      39.39
C      35.82      17.66      34.74
C      35.88      17.72      33.33
C      35.68      16.57      32.55
C      35.42      15.34      33.21
C      35.38      15.28      34.62
C      33.47      13.32      39.24
C      32.59      12.47      39.93
C      31.88      12.94      41.06
C      32.06      14.28      41.47
C      32.95      15.12      40.77
C      34.61      15.50      38.96
C      34.64      15.56      37.55
C      35.56      16.38      36.85
C      36.47      17.14      37.62
C      36.46      17.14      39.03
C      35.53      16.31      39.68
C      16.26      35.38      35.41
C      14.51      33.82      39.77
C      18.16      37.16      39.65
C      13.80      34.28      40.91
C      12.98      33.41      41.65
C      12.84      32.06      41.28
C      13.52      31.60      40.13
C      14.34      32.47      39.39
C      16.03      34.16      34.74
C      15.96      34.10      33.33
C      16.16      35.26      32.55
C      16.42      36.48      33.21
C      16.46      36.54      34.62
C      18.37      38.50      39.24
C      19.26      39.35      39.93
C      19.97      38.89      41.06
C      19.78      37.55      41.46
C      18.89      36.70      40.77
C      17.23      36.32      38.96
C      17.20      36.26      37.55
C      16.28      35.45      36.85
C      15.37      34.68      37.62
C      15.38      34.68      39.03
C      16.32      35.52      39.68
C      35.45      16.21      26.24
C      33.92      14.44      21.87
C      37.19      18.16      22.01
C      34.36      13.83      20.66
C      33.50      13.01      19.90
C      32.18      12.75      20.34
C      31.73      13.36      21.53
C      32.58      14.19      22.28
C      34.22      15.97      26.90
C      34.14      15.91      28.30
C      35.29      16.13      29.09
C      36.52      16.38      28.45
C      36.59      16.42      27.04
C      38.54      18.38      22.38
C      39.35      19.29      21.67
C      38.84      20.02      20.58
C      37.49      19.79      20.19
C      36.69      18.88      20.90
C      36.38      17.20      22.69
C      36.33      17.15      24.11
C      35.52      16.22      24.80
C      34.77      15.30      24.03
C      34.76      15.32      22.62
C      35.58      16.28      21.97
C      16.40      35.62      26.24
C      17.93      37.38      21.87
C      14.65      33.67      22.01
C      17.49      37.99      20.66
C      18.34      38.81      19.90
C      19.66      39.07      20.34
C      20.11      38.46      21.53
C      19.26      37.63      22.28
C      17.63      35.85      26.90
C      17.70      35.91      28.30
C      16.56      35.70      29.09
C      15.32      35.44      28.45
C      15.25      35.41      27.04
C      13.30      33.44      22.38
C      12.49      32.54      21.67
C      13.01      31.81      20.58
C      14.35      32.04      20.19
C      15.16      32.94      20.90
C      15.46      34.63      22.69
C      15.51      34.67      24.11
C      16.32      35.60      24.80
C      17.07      36.52      24.03
C      17.08      36.50      22.62
C      16.26      35.55      21.97
C      16.22      16.39      56.87
C      14.45      17.92      52.50
C      18.16      14.64      52.64
C      13.84      17.48      51.30
C      13.02      18.34      50.54
C      12.77      19.65      50.97
C      13.37      20.10      52.16
C      14.20      19.25      52.92
C      15.98      17.62      57.54
C      15.92      17.69      58.94
C      16.14      16.55      59.73
C      16.39      15.32      59.08
C      16.43      15.24      57.68
C      18.39      13.29      53.02
C      19.30      12.48      52.30
C      20.02      13.00      51.21
C      19.80      14.34      50.83
C      18.89      15.15      51.53
C      17.21      15.45      53.33
C      17.16      15.50      54.74
C      16.23      16.31      55.44
C      15.31      17.07      54.67
C      15.33      17.07      53.25
C      16.29      16.25      52.60
C      35.62      35.44      56.87
C      37.39      33.91      52.50
C      33.68      37.18      52.64
C      38.00      34.35      51.30
C      38.82      33.49      50.54
C      39.08      32.17      50.97
C      38.47      31.72      52.17
C      37.64      32.57      52.92
C      35.86      34.21      57.54
C      35.92      34.13      58.94
C      35.71      35.28      59.73
C      35.45      36.51      59.08
C      35.41      36.59      57.68
C      33.45      38.53      53.02
C      32.54      39.34      52.30
C      31.82      38.83      51.21
C      32.04      37.48      50.83
C      32.95      36.68      51.53
C      34.64      36.37      53.33
C      34.68      36.32      54.74
C      35.61      35.51      55.44
C      36.53      34.76      54.67
C      36.51      34.75      53.25
C      35.56      35.57      52.61
C       9.74      27.47      17.08
C       5.25      26.02      15.75
C       9.21      23.94      13.82
C       4.41      25.21      14.94
C       3.01      25.32      15.00
C       2.38      26.24      15.87
C       3.21      27.05      16.68
C       4.62      26.94      16.62
C       9.26      28.48      17.96
C      10.15      29.28      18.72
C      11.55      29.11      18.62
C      12.03      28.11      17.74
C      11.15      27.31      16.99
C      10.61      23.83      13.70
C      11.20      22.89      12.83
C      10.41      22.02      12.05
C       9.00      22.13      12.17
C       8.41      23.07      13.04
C       8.61      24.89      14.71
C       8.86      26.65      16.32
C       6.68      25.93      15.66
C      10.95      21.08      11.17
C       1.00      26.41      15.89
C      12.47      29.86      19.35
C      42.10      24.35      17.08
C      46.59      25.80      15.75
C      42.64      27.88      13.82
C      47.43      26.61      14.94
C      48.83      26.50      15.00
C      49.46      25.59      15.87
C      48.63      24.77      16.68
C      47.23      24.88      16.62
C      42.58      23.35      17.96
C      41.69      22.54      18.72
C      40.29      22.72      18.62
C      39.81      23.71      17.74
C      40.69      24.51      16.99
C      41.23      28.00      13.70
C      40.64      28.93      12.83
C      41.44      29.80      12.05
C      42.84      29.69      12.17
C      43.43      28.75      13.04
C      43.23      26.93      14.71
C      42.98      25.18      16.32
C      45.17      25.89      15.66
C      40.89      30.74      11.17
C       0.10      25.41      15.89
C      39.37      21.97      19.35
C      24.36       9.73      47.72
C      25.81       5.24      46.38
C      27.89       9.20      44.46
C      26.62       4.40      45.58
C      26.51       3.00      45.63
C      25.60       2.37      46.51
C      24.78       3.20      47.31
C      24.89       4.61      47.25
C      23.36       9.25      48.60
C      22.55      10.14      49.35
C      22.73      11.54      49.26
C      23.72      12.02      48.37
C      24.52      11.14      47.62
C      28.01      10.60      44.34
C      28.94      11.19      43.47
C      29.81      10.39      42.68
C      29.70       8.99      42.80
C      28.76       8.40      43.67
C      26.94       8.60      45.34
C      25.19       8.85      46.95
C      25.90       6.67      46.30
C      30.75      10.94      41.80
C      25.42       0.99      46.53
C      21.98      12.46      49.99
C      27.48      42.09      47.72
C      26.03      46.58      46.38
C      23.95      42.63      44.46
C      25.22      47.42      45.58
C      25.33      48.82      45.63
C      26.24      49.45      46.51
C      27.06      48.62      47.31
C      26.95      47.22      47.25
C      28.49      42.57      48.60
C      29.29      41.69      49.35
C      29.12      40.28      49.25
C      28.12      39.80      48.37
C      27.32      40.68      47.62
C      23.84      41.22      44.33
C      22.90      40.63      43.47
C      22.03      41.43      42.68
C      22.14      42.83      42.80
C      23.08      43.42      43.67
C      24.90      43.22      45.34
C      26.66      42.97      46.95
C      25.94      45.16      46.30
C      21.09      40.88      41.80
C      26.42       0.09      46.53
C      29.87      39.36      49.98
C      42.16      24.21      44.70
C      46.60      25.77      46.01
C      42.61      27.88      47.82
C      47.43      26.59      46.82
C      48.83      26.49      46.77
C      49.46      25.57      45.90
C      48.65      24.74      45.10
C      47.24      24.84      45.15
C      42.68      23.18      43.88
C      41.83      22.35      43.12
C      40.43      22.52      43.15
C      39.90      23.54      43.98
C      40.75      24.36      44.74
C      41.20      28.07      47.82
C      40.59      28.99      48.69
C      41.36      29.76      49.60
C      42.76      29.58      49.60
C      43.38      28.67      48.72
C      43.22      26.91      46.98
C      43.01      25.09      45.44
C      45.18      25.86      46.08
C      40.76      30.59      50.52
C       0.10      25.41      45.89
C      39.56      21.80      42.35
C       9.68      27.61      44.70
C       5.24      26.05      46.01
C       9.23      23.94      47.82
C       4.41      25.23      46.82
C       3.01      25.33      46.77
C       2.38      26.25      45.90
C       3.20      27.08      45.10
C       4.60      26.98      45.15
C       9.16      28.64      43.88
C      10.01      29.47      43.12
C      11.42      29.30      43.15
C      11.94      28.28      43.98
C      11.09      27.46      44.74
C      10.64      23.75      47.82
C      11.25      22.83      48.69
C      10.48      22.07      49.60
C       9.08      22.24      49.60
C       8.47      23.16      48.72
C       8.62      24.91      46.98
C       8.83      26.74      45.44
C       6.66      25.97      46.08
C      11.08      21.24      50.52
C       0.99      26.42      45.89
C      12.28      30.03      42.34
C      27.62      42.15      14.06
C      26.06      46.59      15.38
C      23.95      42.60      17.19
C      25.24      47.42      16.18
C      25.34      48.82      16.13
C      26.26      49.46      15.26
C      27.09      48.64      14.46
C      26.99      47.23      14.51
C      28.65      42.67      13.24
C      29.48      41.82      12.48
C      29.31      40.42      12.51
C      28.29      39.89      13.34
C      27.47      40.74      14.11
C      23.76      41.20      17.19
C      22.84      40.58      18.05
C      22.08      41.35      18.96
C      22.25      42.75      18.96
C      23.17      43.37      18.08
C      24.92      43.22      16.34
C      26.75      43.00      14.81
C      25.97      45.17      15.45
C      21.25      40.75      19.89
C      26.43       0.09      15.25
C      30.03      39.55      11.71
C      24.22       9.67      14.06
C      25.78       5.23      15.38
C      27.89       9.22      17.19
C      26.60       4.40      16.18
C      26.50       3.00      16.13
C      25.58       2.37      15.26
C      24.75       3.19      14.46
C      24.85       4.59      14.51
C      23.19       9.15      13.24
C      22.36      10.00      12.48
C      22.53      11.41      12.52
C      23.55      11.93      13.34
C      24.37      11.08      14.11
C      28.08      10.63      17.19
C      29.00      11.24      18.05
C      29.77      10.47      18.96
C      29.59       9.07      18.96
C      28.68       8.46      18.08
C      26.92       8.61      16.34
C      25.10       8.82      14.81
C      25.87       6.65      15.45
C      30.60      11.07      19.89
C      25.42       0.98      15.25
C      21.81      12.27      11.71
N      12.21      20.80      11.15
N      16.69      16.04       0.60
N      20.57      12.07      11.40
N      39.63      31.02      11.15
N      35.16      35.78       0.60
N      31.27      39.75      11.40
N      31.03      12.20      41.78
N      35.79      16.68      31.24
N      39.76      20.56      42.03
N      20.81      39.62      41.78
N      16.05      35.15      31.24
N      12.08      31.26      42.04
N      39.65      20.84      19.91
N      35.16      16.03      30.41
N      31.37      12.04      19.56
N      12.20      30.98      19.91
N      16.68      35.80      30.41
N      20.47      39.78      19.56
N      20.85      12.19      50.54
N      16.04      16.67      61.04
N      12.06      20.46      50.20
N      30.99      39.64      50.54
N      35.80      35.15      61.04
N      39.79      31.36      50.20
N       9.37      25.72      15.46
N       7.51      26.73      16.40
N       7.26      25.03      14.83
N      42.47      26.10      15.46
N      44.34      25.10      16.40
N      44.58      26.80      14.83
N      26.11       9.36      46.10
N      25.10       7.50      47.03
N      26.81       7.25      45.47
N      25.73      42.46      46.10
N      26.74      44.33      47.03
N      25.04      44.57      45.47
N      42.48      26.04      46.25
N      44.37      25.02      45.38
N      44.57      26.79      46.87
N       9.37      25.78      46.25
N       7.48      26.80      45.38
N       7.27      25.04      46.87
N      25.79      42.47      15.61
N      26.81      44.36      14.74
N      25.04      44.56      16.24
N      26.05       9.36      15.61
N      25.03       7.47      14.74
N      26.80       7.26      16.24
