28

C      11.91      14.20       9.77
O      15.78      13.47       8.90
Mg      10.08      12.75       8.25
O      13.72      12.61       6.77
Mg       6.86      12.84      10.05
O      17.40      14.49      10.01
Mg      14.12      12.40       8.69
Mg      17.33      12.49      10.49
O      11.48      12.81       6.86
C      19.84      12.27      12.46
C       9.18      10.69       9.56
C      12.59      12.97       6.27
C      16.44      14.54       9.18
C      19.17      11.04       8.97
O       5.33      12.14       9.04
O      17.96      10.94       9.36
O      14.63      11.02      10.01
O      15.82      11.94      11.69
O       7.38      14.22       8.73
O       8.57      13.30       7.05
O      12.58      13.10       9.70
C      14.78      11.35      11.24
O      10.71      14.29       9.38
O       8.52      11.77       9.84
O       6.47      12.62      11.97
O      10.15      10.75       8.73
O      18.73      12.42      11.88
C       7.53      13.89       7.49
