15

O      10.02      15.99      24.69
O      11.81      15.68      26.04
N      12.73      10.57      24.91
N      12.13       9.46      24.49
N      10.87       9.74      24.13
C      10.95      15.25      25.25
C      10.87      13.79      24.88
C       9.68      13.26      24.30
C       9.53      11.91      24.03
C      10.64      11.08      24.30
C      11.84      11.62      24.83
C      11.95      12.97      25.16
H       8.87      13.94      24.08
H       8.59      11.50      23.66
H      12.86      13.37      25.60
