15

C       4.09      15.23       9.02
C       4.16      13.78       8.65
C       5.34      13.24       8.07
C       5.49      11.89       7.79
C       4.38      11.07       8.06
C       3.18      11.60       8.59
C       3.07      12.96       8.93
H       6.16      13.92       7.85
H       6.43      11.48       7.42
H       2.17      13.36       9.36
N       2.29      10.56       8.67
N       2.89       9.44       8.25
N       4.15       9.72       7.89
O       5.02      15.96       8.45
O       3.23      15.67       9.81
