22

O       1.67       5.13       9.80
O       2.41       3.10      10.37
O       4.41       6.62      15.63
O       4.49       7.61      13.58
H       3.46       6.08      11.92
H       5.20       7.23      15.81
O       2.26       4.71      17.23
O       1.53       6.74      16.67
O      -0.47       3.22      11.41
O      -0.56       2.23      13.45
H       0.47       3.76      15.12
H      -1.27       2.61      11.22
C       2.79       5.57      12.60
C       1.96       4.24      10.70
C       2.90       5.87      13.97
C       1.87       4.62      12.14
C       3.99       6.81      14.35
C       1.15       4.27      14.43
C       1.97       5.60      16.33
C       1.03       3.97      13.07
C       2.06       5.21      14.89
C      -0.06       3.03      12.68
