22

H       8.12       1.16       1.60
H       6.38       2.31      -2.29
O       9.32      -0.21      -3.71
O      10.05       1.82      -3.15
O      12.05      -1.70       2.11
O      12.14      -2.69       0.06
H      11.10      -1.16      -1.60
H      12.85      -2.31       2.29
C       8.79       0.65       0.91
C       9.62      -0.68       2.82
C       8.68       0.95      -0.45
C       9.71      -0.29       1.37
C       7.58       1.89      -0.84
C      10.43      -0.65      -0.91
C       9.61       0.68      -2.82
C      10.55      -0.95       0.45
C       9.52       0.29      -1.37
C      11.64      -1.89       0.84
O       9.91       0.21       3.71
O       9.17      -1.82       3.15
O       7.17       1.70      -2.11
O       7.09       2.69      -0.06
