16

C       7.18       5.17      17.99
C       7.00       5.02      19.35
C       7.05       6.13      20.20
C       7.41       6.44      17.47
C       7.24       7.41      19.69
C       7.43       7.57      18.32
H       7.18       4.30      17.35
H       6.83       4.03      19.74
C       7.88       6.58      16.11
C       6.78       5.92      21.61
O       5.90       6.63      22.19
O       7.17       4.81      22.06
H       7.29       8.26      20.35
O       7.74       7.70      15.54
O       8.67       5.68      15.67
H       7.65       8.56      17.93
