20

C      -3.05       6.54      12.20
C      -4.17       5.87       6.72
C      -3.96       6.06       8.14
C      -3.69       6.30      10.92
C      -4.37       7.22       8.79
C      -4.22       7.35      10.16
C      -3.51       5.05      10.31
C      -3.64       4.93       8.93
C      -3.95       8.63       8.53
C      -3.77       8.77      10.03
H      -3.14       4.20      10.86
H      -3.43       3.97       8.48
H      -4.79       9.24       8.13
H      -2.71       8.90      10.32
H      -3.00       8.70       7.96
H      -4.49       9.48      10.50
O      -3.17       7.69      12.73
O      -5.02       6.61       6.13
O      -2.24       5.67      12.64
O      -3.75       4.79       6.23
