18

O       3.24       2.44       3.19
O       5.48       0.56      -3.32
O       3.27       0.76      -3.22
C       4.43       1.04      -2.79
C       3.21       1.89       0.54
C       3.30       1.87      -0.83
C       4.38       2.22       2.72
C       4.51       1.58      -1.45
C       5.68       1.46      -0.70
H       2.38       1.96      -1.39
C       5.63       1.59       0.69
H       6.63       1.21      -1.17
C       4.40       1.81       1.32
O       5.45       2.64       3.30
N       1.89       1.96       1.10
O       1.04       1.01       0.84
O       1.41       3.12       1.46
H       6.55       1.53       1.26
