18

O       1.75       7.91      15.68
O       2.25       5.03      22.19
O       3.17       7.05      22.09
C       2.97       6.85      18.02
C       2.41       6.16      21.63
C       3.14       6.80      19.39
C       1.38       6.78      16.12
C       2.11       6.30      20.22
C       0.92       5.85      19.68
H       4.09       7.11      19.81
C       0.74       5.89      18.31
H       0.13       5.47      20.31
C       1.75       6.42      17.47
O       0.47       6.09      15.57
N       4.02       7.38      17.20
O       4.66       8.45      17.57
O       4.34       6.80      16.08
H      -0.22       5.59      17.90
