19

C       2.41       6.13       6.71
C       1.40       6.75      12.22
C       0.95       5.54      10.13
C       1.05       5.49       8.74
C       2.06       6.26       8.12
C       2.96       7.01       8.91
C       2.84       7.05      10.27
C       1.80       6.36      10.89
C       0.04       4.70       7.98
H       0.12       5.02      10.61
H       3.77       7.58       8.47
H       3.52       7.67      10.85
H      -1.15       3.08       7.93
O       1.76       7.90      12.65
O       2.25       5.01       6.13
O       3.17       7.03       6.25
O       0.48       6.08      12.76
O      -0.36       5.09       6.89
O      -0.48       3.53       8.54
