10

C       6.20       6.07       3.82
N       5.77       5.40       4.90
C       3.97       6.07       3.82
O       6.23       7.66       1.40
C       5.09       6.54       3.10
O       3.94       7.66       1.40
C       5.09       7.35       1.88
H       7.25       6.19       3.60
H       2.92       6.19       3.60
N       4.40       5.40       4.90
