225

C       9.06      29.48      16.59
C       9.02      28.15      17.07
C       9.60      27.10      16.33
C       0.20      27.39      15.09
C       0.22      28.71      14.59
C       9.65      29.74      15.33
C       9.06      22.14       5.14
C       9.02      23.22       6.04
C       9.60      23.10       7.32
C       0.20      21.89       7.69
C       0.22      20.79       6.80
C       9.65      20.92       5.53
C       9.06      15.89      17.22
C       9.02      16.14      15.83
C       9.59      17.31      15.29
C       0.20      18.23      16.15
C       0.22      18.01      17.54
C       9.65      16.84      18.07
C       0.20      -7.01      21.84
C       9.92      -5.71      21.38
C       9.97      -4.61      22.26
C       0.30      -4.83      23.62
C       0.58      -6.13      24.09
C       0.53      -7.22      23.20
C       0.20       0.05      34.11
C       9.92      -1.00      33.21
C       9.97      -0.79      31.82
C       0.30       0.49      31.34
C       0.58       1.55      32.22
C       0.53       1.32      33.61
C       0.20       7.14      21.86
C       9.92       6.89      23.22
C       9.97       5.57      23.73
C       0.30       4.51      22.87
C       0.57       4.75      21.50
C       0.53       6.07      21.01
C       9.45      32.28      19.01
C       8.23     -10.55      19.00
C       9.17      -9.97      19.87
C       0.35      32.84      19.92
C       1.39      32.23      20.40
C       9.04      -8.58      20.35
C       9.61      30.90      18.47
C       9.45      22.84       1.50
C       8.23      -0.65      38.60
C       9.17      -0.18      37.66
C       0.35      23.35       0.55
C       1.39      24.07       0.85
C       9.04      -0.46      36.21
C       9.61      23.06       2.96
C       9.45      12.40      18.43
C       8.23      11.38      20.22
C       9.17      10.33      20.28
C       0.35      11.32      18.47
C       1.40      11.22      17.69
C       9.04       9.22      21.26
C       9.61      13.55      17.51
C       0.22      28.13      11.14
C       1.40      26.15      10.49
C       0.65      26.07       9.30
C       9.49      28.06       9.93
C       8.56      28.90       9.61
C       0.80      24.95       8.34
C       0.01      29.18      12.17
C       0.22      18.09       9.02
C       1.40      18.52      11.07
C       0.65      17.53      11.73
C       9.49      17.08       9.69
C       8.56      16.38       9.12
C       0.79      17.26      13.18
C       0.01      18.46       7.60
C       0.22      21.29      18.77
C       1.40      22.84      17.38
C       0.65      23.91      17.91
C       9.49      22.37      19.32
C       8.56      22.23      20.21
C       0.80      25.30      17.42
C       0.01      19.87      19.17
C       0.16      -5.58      27.64
C       1.53      -3.87      28.62
C       0.66      -3.79      29.73
C       9.31      -5.50      28.76
C       8.23      -6.22      28.89
C       0.86      -2.80      30.82
C       9.93      -6.45      26.46
C       0.16       4.35      29.97
C       1.53       4.35      28.00
C       0.66       5.27      27.37
C       9.31       5.29      29.34
C       8.23       5.76      29.90
C       0.86       5.72      25.98
C       9.93       3.77      31.31
C       0.16       1.40      20.21
C       1.53      -0.30      21.19
C       0.66      -1.30      20.71
C       9.31       0.39      19.71
C       8.23       0.63      19.02
C       0.86      -2.74      21.02
C       9.93       2.86      20.04
H       0.63      26.63      14.55
H       9.71      30.71      14.99
H       8.60      27.96      17.98
H       7.71      30.43      17.74
H       1.58      29.70      13.47
H       9.19      25.16      16.12
H       0.63      21.80       8.62
H       9.71      20.15       4.87
H       8.61      24.11       5.76
H       7.71      22.66       3.74
H       1.58      19.33       6.50
H       9.19      23.90       9.11
H       0.62      19.08      15.77
H       9.71      16.66      19.08
H       8.60      15.44      15.20
H       7.71      14.42      17.46
H       1.58      18.48      18.96
H       9.19      18.46      13.70
H       0.37      -4.04      24.26
H       0.77      -8.16      23.53
H       9.71      -5.56      20.40
H       1.00      -7.94      20.26
H       1.75      -6.95      25.55
H       9.46      -2.67      22.53
H       0.36       0.66      30.33
H       0.77       2.08      34.26
H       9.71      -1.93      33.58
H       1.00      -0.87      35.70
H       1.75       3.23      32.20
H       9.46      -1.52      30.01
H       0.36       3.56      23.23
H       0.77       6.25      20.03
H       9.70       7.67      23.84
H       1.00       8.97      21.86
H       1.75       3.89      20.07
H       9.46       4.37      25.28
H       7.43     -10.02      18.64
H       8.79      -7.92      19.51
H       8.22      -8.55      21.07
H       9.49      30.18      19.29
H       0.61      30.82      18.09
H       7.44      -1.23      38.32
H       8.79      -1.52      36.06
H       8.22       0.14      35.82
H       9.49      24.13       3.17
H       0.61      22.77       3.22
H       7.43      11.42      20.86
H       8.79       9.62      22.24
H       8.22       8.58      20.92
H       9.49      13.20      16.48
H       0.61      13.92      17.63
H       2.11      25.45      10.73
H       1.08      25.37       7.37
H       1.59      24.27       8.66
H       8.97      29.20      12.44
H       0.25      30.15      11.72
H       2.11      19.08      11.55
H       1.08      16.21      13.30
H       1.59      17.87      13.61
H       8.97      18.69       7.45
H       0.25      17.59       6.98
H       2.11      22.99      16.66
H       1.08      25.93      18.27
H       1.60      25.37      16.68
H       8.97      19.63      19.04
H       0.24      19.77      20.23
H       2.35      -3.27      28.53
H       0.98      -3.36      31.75
H       1.78      -2.24      30.65
H       8.95      -6.18      26.05
H       9.89      -7.49      26.78
H       2.35       3.97      27.52
H       0.98       6.80      25.99
H       1.78       5.29      25.57
H       8.95       3.28      31.29
H       9.89       4.57      32.06
H       2.35      -0.53      21.76
H       0.98      -3.27      20.07
H       1.78      -2.88      21.59
H       8.95       3.08      20.48
H       9.89       3.10      18.98
N       8.65      30.58      17.37
N       0.88      28.96      13.36
N       9.54      25.79      16.85
N       8.66      22.27       3.79
N       0.88      19.61       7.20
N       9.54      24.21       8.20
N       8.66      14.66      17.78
N       0.87      18.95      18.37
N       9.54      17.51      13.89
N       0.29      -8.12      20.98
N       0.97      -6.28      25.43
N       9.72      -3.31      21.76
N       0.29      -0.15      35.50
N       0.97       2.79      31.68
N       9.72      -1.88      30.94
N       0.28       8.44      21.34
N       0.97       3.66      20.70
N       9.72       5.36      25.12
N       8.42      33.06      18.59
N       0.17     -10.76      20.30
N       2.31      31.69      20.82
N       8.42      22.08       1.03
N       0.17       0.59      38.12
N       2.31      24.71       1.11
N       8.42      12.37      19.32
N       0.17      10.35      19.39
N       2.32      11.12      17.02
N       1.15      27.16      11.35
N       9.74      27.03       9.08
N       7.72      29.64       9.32
N       1.15      18.76       9.76
N       9.74      16.86      11.01
N       7.72      15.77       8.62
N       1.15      21.59      17.83
N       9.74      23.62      18.85
N       7.72      22.10      20.98
N       1.24      -4.74      27.63
N       9.60      -4.61      29.75
N       7.28      -6.84      29.01
N       1.23       3.93      29.25
N       9.60       5.70      28.08
N       7.28       6.17      30.38
N       1.24       0.99      20.93
N       9.60      -0.91      19.98
N       7.28       0.85      18.43
