26

C      16.55       2.81       7.87
C      16.89       7.45       7.59
C      13.00       2.85       7.65
C      12.71       6.64       9.26
C      13.53       2.64      12.34
C      14.54       8.24      12.40
Ni      15.50       6.76      10.13
Ni      14.54       3.76       9.87
Ni      14.77       5.24       7.08
Ni      13.21       5.62      12.00
O      15.36       5.24       8.87
O      16.16       7.95       8.58
O      16.39       6.57       6.71
O      13.68       7.43       9.59
O      13.40       7.65      12.12
O      15.91       3.52       6.91
O      13.89       2.44       8.49
O      15.01       5.18      11.28
O      15.52       8.24      11.52
O      14.23       2.33      11.28
O      12.65       3.62      12.28
O      12.30       5.73      10.13
O      16.31       2.97       9.20
O      13.03       4.11       7.24
H      16.34       5.15       8.80
H      15.68       4.90      11.96
