25

C      12.17       3.27       7.11
C      11.78       2.16       7.87
C      11.31       2.38       9.17
C      12.53       5.73       6.83
H      11.77       5.74       9.42
H      12.50       3.18       6.07
H      10.98       1.57       9.81
H      10.87      -0.19       9.03
C      11.85       0.78       7.34
C      11.34      -0.32       8.06
H      12.92       1.26       5.50
C      11.43      -1.60       7.55
C      12.49      -0.83       5.64
C      12.46       0.48       6.10
H      11.03      -2.46       8.08
H      12.94      -1.08       4.68
N      11.98      -1.86       6.34
O      10.47       2.72      11.70
O      10.47       5.00      11.58
O      12.59       6.88       7.40
O      12.74       5.61       5.58
C      10.69       3.85      11.12
C      11.26       3.67       9.73
C      11.73       4.75       8.98
C      12.16       4.55       7.66
