36

H      13.10      11.31      13.43
H      12.56       9.31      11.59
H       9.17      11.86      12.01
H       8.87      11.26       9.68
H       7.74       9.92       7.97
H       9.81       6.41       9.39
H      10.98       7.74      11.04
N      11.08      11.94      12.98
N      10.66      10.37      11.48
N       5.68       3.33       2.96
N       6.10       4.90       4.47
H       3.65       3.96       2.51
H       4.20       5.96       4.35
H       7.59       3.41       3.94
H       7.89       4.01       6.26
H       9.02       5.35       7.97
H       6.95       8.86       6.55
H       5.78       7.53       4.90
C      12.20      11.13      12.86
C      11.96      10.15      11.94
C      10.17      11.45      12.15
C       9.99       9.59      10.49
C       9.07      10.19       9.62
C       8.44       9.43       8.64
C       8.70       8.05       8.50
C       9.61       7.48       9.41
C      10.27       8.23      10.37
C       4.55       4.14       3.09
C       4.80       5.12       4.01
C       6.59       3.82       3.80
C       6.77       5.68       5.46
C       7.68       5.08       6.33
C       8.31       5.85       7.31
C       8.06       7.22       7.45
C       7.15       7.79       6.54
C       6.49       7.04       5.57
