74

U       6.92       1.44       1.16
U      -2.65       4.79       6.37
U      -4.03       4.18      11.79
U       5.53       0.83       6.57
H       6.34       6.23       1.03
H       3.96       8.78       3.58
H       3.63       6.88       5.16
H       4.42       4.63       4.55
H       5.79       2.91       4.10
H       4.14       2.72       4.97
H       0.39       8.48       5.13
H      -0.25       5.19       2.39
H       0.77       6.52       0.53
H       1.67       8.82       0.97
H      -3.46      -0.61      11.91
H      -1.08      -3.15       9.36
H      -0.76      -1.25       7.78
H      -1.54       0.99       8.39
H      -2.91       2.72       8.84
H      -1.27       2.91       7.97
H       2.49      -2.85       7.81
H       3.12       0.43      10.55
H       2.10      -0.91      12.41
H       1.21      -3.20      11.97
C       6.26       4.08       2.47
C       5.61       5.28       2.83
C       5.75       6.37       1.93
C       5.19       7.61       2.21
C       4.43       7.81       3.40
C       4.26       6.75       4.27
C       4.83       5.49       4.03
C       5.40       8.69       1.25
C       4.93      -0.33       3.31
C       1.10       8.82       3.08
C       0.48       8.08       4.12
C      -0.02       6.81       3.84
C       0.09       6.21       2.55
C       0.68       6.96       1.52
C       1.14       8.27       1.75
C      -0.78       6.12       4.90
C      -3.38       1.54      10.47
C      -2.73       0.34      10.12
C      -2.88      -0.75      11.01
C      -2.31      -1.99      10.73
C      -1.55      -2.18       9.54
C      -1.38      -1.13       8.67
C      -1.96       0.13       8.91
C      -2.52      -3.07      11.69
C      -2.05       5.95       9.63
C       1.77      -3.20       9.87
C       2.39      -2.45       8.83
C       2.90      -1.19       9.10
C       2.78      -0.59      10.39
C       2.20      -1.34      11.42
C       1.74      -2.64      11.19
C       3.65      -0.50       8.04
O       6.42       2.98       3.32
O       6.75       3.83       1.30
O       4.75       9.80       1.44
O       6.19       8.53       0.25
O       4.90       2.87       5.56
O      -0.78       4.82       4.99
O      -1.53       6.79       5.71
O       5.32       0.41       2.29
O       5.23       0.09       4.53
O      -3.54       2.64       9.62
O      -3.88       1.79      11.64
O      -1.88      -4.18      11.51
O      -3.32      -2.91      12.69
O      -2.02       2.75       7.38
O       3.65       0.80       7.95
O       4.41      -1.17       7.23
O      -2.43       5.21      10.66
O      -2.35       5.53       8.41
