86

Zn       6.46       5.35       5.43
Zn       3.38       5.35       5.43
H       0.95       6.54       8.71
H       9.27       8.26       9.11
H       6.99       7.60       9.79
H       3.24       9.45       4.04
H       3.18       1.27       4.09
H       7.28       1.17       7.69
H       5.47       1.18       8.12
H       7.33       9.44       7.63
H       5.51       9.42       8.09
H       1.26       1.54       2.19
H       8.71       8.51       4.74
H       8.75       7.90       6.51
H       1.08       8.53       4.67
H       2.71       5.18       9.54
H       0.38       4.14       8.91
H       9.42       2.09       3.57
H       8.58       3.53       3.44
H       1.11       2.83       7.18
H       1.04       2.28       5.57
H       8.88       2.85       7.24
H       8.70       2.30       5.67
H       3.16       1.54       0.38
H       3.89       1.77       1.89
H       1.57       7.26       2.17
H       0.85       7.11       0.64
H       8.86       5.87       1.15
H       9.43       6.56       2.52
H       7.86       3.60       0.79
H       6.62       3.09       1.75
C       4.93       7.89       5.42
C       0.24       3.43       2.32
C       3.63       5.22      10.11
C       4.87       5.31       9.48
C       6.05       5.12      10.23
C       6.16       4.76       0.73
C       4.96       5.05       1.38
C       3.79       5.05       0.62
C       8.36       4.50       9.40
C       9.66       4.89       9.07
C      -0.06       6.24       8.96
C       4.96       5.23       2.83
C       9.01       7.22       9.20
C       7.72       6.84       9.57
C       7.39       5.48       9.70
C       5.96       9.97       6.03
C       4.95       9.30       5.36
C       3.99       9.98       4.61
C       3.95       0.73       4.63
C       4.92       1.40       5.39
C       5.93       0.71       6.04
C       6.28       0.75       7.50
C       4.91       2.81       5.44
C       6.32       9.88       7.48
C       0.61       6.42       4.97
C       0.62       4.24       5.80
C       9.22       4.25       5.83
C       9.24       6.43       4.99
C       9.17       7.83       5.48
C       0.66       7.84       5.44
C       4.88       5.38       8.03
C       1.32       2.61       2.00
C       2.46       3.13       1.41
C       2.55       4.51       1.18
C       1.48       5.36       1.46
C       0.30       4.82       2.00
N       1.33       5.36       5.42
N       8.51       5.36       5.42
N       9.12       2.82       2.89
N       1.33       3.07       6.19
N       8.51       3.11       6.30
N       3.54       2.26       1.03
N       1.63       6.77       1.25
N       9.17       5.64       2.12
N       7.12       3.95       1.42
O       6.08       7.30       5.43
O       3.78       7.30       5.43
O       6.11       5.34       3.44
O       3.81       5.34       3.44
O       6.06       3.40       5.43
O       3.76       3.40       5.43
O       6.03       5.36       7.42
O       3.73       5.36       7.42
F       1.23       7.97       6.69
F       8.04       3.18       9.44
