162

C       5.08       9.58       0.04
C       5.90       9.50       1.20
C       7.16       8.85       1.18
C       7.56       8.11       0.04
C       6.72       8.12      27.26
C       5.55       8.91      27.24
C       3.85      10.31       0.04
C       3.03      10.40       1.20
C       1.77      11.05       1.19
C       1.37      11.79       0.05
C       2.20      11.78      27.26
C       3.37      10.98      27.24
C      16.14       9.61       9.50
C      15.65       8.94      10.66
C      14.46       8.18      10.64
C      13.62       8.20       9.49
C      14.05       8.92       8.35
C      15.32       9.54       8.33
C      17.38      10.31       9.50
C      17.87      10.98      10.66
C      -5.54      11.74      10.65
C      -4.69      11.72       9.50
C      -5.12      11.00       8.35
C      18.20      10.39       8.33
C      10.63       0.02      18.95
C      10.30       0.77      20.11
C      10.23       2.19      20.09
C      10.66       2.90      18.95
C      11.07       2.18      17.80
C      10.98       0.76      17.79
C      -1.68      19.89      18.95
C      -1.35      19.14      20.12
C      -1.28      17.73      20.10
C      -1.72      17.00      18.96
C      -2.13      17.73      17.81
C      -2.03      19.14      17.79
C       7.40       6.06      24.23
C       8.53       3.94      24.43
C       8.67       3.85      23.03
C       7.50       5.96      22.81
C       6.76       7.11      24.93
C       9.29       2.76      22.39
C      11.93       9.37       5.32
C       9.53       9.45       5.52
C       9.38       9.37       4.12
C      11.79       9.32       3.90
C      13.15       9.39       6.02
C       8.13       9.38       3.48
C      12.52       3.79      14.77
C      13.79       5.83      14.97
C      13.80       5.99      13.57
C      12.56       3.92      13.36
C      11.93       2.72      15.47
C      14.44       7.07      12.93
C       1.53      13.84      24.24
C       0.42      15.97      24.44
C       0.27      16.06      23.04
C       1.42      13.94      22.82
C       2.16      12.79      24.94
C      -0.34      17.15      22.40
C      -2.99      10.55       5.33
C      -0.59      10.46       5.53
C      -0.45      10.54       4.13
C      -2.86      10.60       3.91
C      -4.22      10.53       6.03
C       0.81      10.52       3.49
C      -3.58      16.12      14.78
C      -4.87      14.09      14.98
C      -4.87      13.92      13.58
C      -3.61      15.98      13.37
C      -2.99      17.19      15.48
C      -5.51      12.84      12.94
H       5.65      10.04       2.03
H       3.97      11.02      26.41
H      -0.38      12.53       0.83
H      -0.11      13.00      27.65
H       9.04       6.91      27.63
H       9.32       7.37       0.82
H       4.96       8.87      26.41
H       3.28       9.85       2.03
H      16.25       8.88      11.48
H      17.94       9.85       7.50
H      -3.17      12.86      10.29
H      -2.91      12.40       8.74
H      11.84       7.52       8.72
H      12.10       7.05      10.27
H      15.58      10.07       7.50
H      17.27      11.04      11.49
H       9.95       0.29      20.94
H      -2.36      19.64      16.96
H      -1.49      15.12      19.74
H      -2.03      15.12      18.19
H      10.96       4.79      18.18
H      10.42       4.80      19.73
H      11.30       0.27      16.95
H      -1.00      19.62      20.94
H       8.90       3.22      25.05
H       6.61       7.70      22.21
H       7.17       6.75      20.97
H       6.18       7.80      24.45
H       9.54       1.92      22.91
H       8.71       9.49       6.14
H      13.74       9.22       3.30
H      12.64       9.20       2.06
H      14.04       9.55       5.54
H       7.27       9.58       4.00
H      14.23       6.52      15.59
H      11.50       2.28      12.76
H      12.04       3.24      11.52
H      11.63       1.87      14.99
H      15.03       7.72      13.45
H       0.05      16.70      25.06
H       2.29      12.19      22.22
H       1.73      13.14      20.98
H       2.74      12.10      24.46
H      -0.59      17.99      22.91
H       0.22      10.41       6.15
H      -4.81      10.71       3.31
H      -3.71      10.73       2.07
H      -5.11      10.38       5.55
H       1.66      10.31       4.00
H      -5.31      13.41      15.60
H      -2.54      17.61      12.77
H      -3.07      16.65      11.53
H      -2.67      18.03      15.00
H      -6.12      12.21      13.46
N       8.74       7.41       0.04
N       0.20      12.49       0.05
N       1.84      12.58      26.23
N       0.89      10.95       2.21
N       7.08       7.32      26.22
N       8.05       8.95       2.20
N      12.43       7.53       9.50
N      -3.49      12.38       9.51
N      -4.25      10.91       7.32
N      -5.18      12.56      11.66
N      13.18       9.01       7.31
N      14.11       7.35      11.65
N      10.68       4.27      18.95
N      -1.74      15.63      18.96
N      -2.65      17.02      16.78
N      -0.75      17.01      21.12
N      11.58       2.89      16.76
N       9.69       2.90      21.11
N       7.94       5.04      24.96
N       8.15       4.88      22.30
N       7.05       6.88      21.93
N      10.77       9.42       6.05
N      10.53       9.30       3.39
N      12.82       9.25       3.02
N      13.14       4.77      15.50
N      13.18       5.03      12.84
N      11.99       3.07      12.47
N       1.01      14.87      24.97
N       0.78      15.02      22.31
N       1.87      13.01      21.94
N      -1.84      10.49       6.06
N      -1.59      10.61       3.40
N      -3.88      10.68       3.03
N      -4.21      15.15      15.51
N      -4.23      14.88      12.86
N      -3.03      16.82      12.48
