608

Cu       0.41      -1.29      10.54
Cu      28.06      31.95       7.99
Cu      13.59      13.96      27.23
Cu      13.74      13.71      24.62
Cu      27.95      -2.85      23.02
Cu      28.10      -2.86      25.65
Cu      14.36      15.33       6.20
Cu      14.29      15.43       8.84
Cu      27.70      19.28      33.08
Cu      28.18      26.08       0.19
Cu      14.44       4.55      16.62
Cu      14.14       7.16      16.89
Cu       0.18      10.02       0.42
Cu      -0.22       3.21      33.34
Cu      13.69      24.82      16.90
Cu      13.67      22.19      16.63
H       7.38       8.20       4.68
H       9.21       9.14       5.94
H       6.34       3.65       9.59
H       8.06       4.69      10.93
H       4.15       4.75       5.47
H      10.93       8.50      10.39
H       6.58      23.71      21.60
H       4.56      24.47      22.66
H       7.61      19.34      26.68
H       5.67      20.20      27.82
H      10.01      20.57      22.71
H       2.45      23.64      26.90
H       5.95      26.34      10.07
H       7.82      25.20      11.06
H       6.00      21.95       4.91
H       7.65      20.62       6.06
H       3.78      26.09       5.77
H      10.28      21.21      10.03
H       7.24       8.24      26.93
H       5.40       6.96      27.81
H       8.54       3.32      22.44
H       6.69       2.03      23.33
H      10.41       7.65      23.40
H       3.44       2.72      26.79
H      19.89      21.80       6.25
H      21.81      22.96       5.35
H      20.90      24.77      12.26
H      22.82      25.91      11.38
H      17.77      21.59      10.56
H      25.08      26.00       7.16
H      19.65       7.94      27.70
H      21.49       6.80      28.78
H      21.27       4.95      21.83
H      23.08       3.78      22.92
H      17.87       8.01      23.24
H      24.73       3.56      27.42
H      23.23       9.36       6.09
H      21.34      10.50       7.02
H      22.39       4.32      10.55
H      20.40       5.38      11.37
H      25.63       5.33       7.15
H      18.19       9.57      10.51
H      18.90      24.61      22.95
H      20.69      25.83      24.00
H      20.27      19.24      26.86
H      22.03      20.48      27.94
H      17.21      20.12      23.29
H      24.00      24.81      27.33
C      26.87       0.36       9.44
C       1.52      30.26       8.95
C       1.79       0.30       8.72
C      26.74      30.35       9.92
C      15.24      11.94      26.11
C      12.10      15.72      25.54
C      11.77      12.24      26.07
C      15.55      15.44      25.94
C       1.61      -1.52      24.29
C      25.71      29.30      24.48
C      26.72      -0.76      24.37
C       0.60      28.55      24.24
C      15.73      17.41       7.48
C      12.95      13.33       7.58
C      12.31      16.81       7.42
C      16.36      13.98       7.65
C      26.32      24.62       1.67
C       1.09      20.87      31.65
C       1.32      24.18       1.46
C      26.15      21.11      31.67
C      12.72       5.49      18.63
C      15.88       6.23      14.90
C      16.19       5.91      18.35
C      12.44       5.82      15.09
C      26.38       4.95      32.24
C       2.09       8.24       1.50
C       1.32       4.86      31.66
C      27.18       8.37       2.14
C      15.09      23.31      18.77
C      12.23      23.74      14.78
C      11.68      23.34      18.21
C      15.70      23.60      15.34
C       5.70       6.23       5.49
C       5.03       5.12       5.99
C       5.42       4.50       7.18
C       6.49       5.04       7.93
C       7.20       6.16       7.42
C       6.84       6.73       6.17
C       7.60       7.78       5.65
C       8.65       8.33       6.38
C       8.94       7.87       7.68
C       8.24       6.75       8.19
C       6.85       4.51       9.18
C       7.85       5.11       9.95
C       8.55       6.23       9.48
C       9.55       6.86      10.26
C      10.18       8.00       9.77
C       9.91       8.51       8.50
C       8.35      21.91      22.58
C       9.10      20.90      23.18
C       8.67      20.26      24.35
C       7.49      20.71      25.00
C       6.73      21.75      24.41
C       7.13      22.32      23.17
C       6.32      23.28      22.56
C       5.15      23.72      23.18
C       4.78      23.24      24.45
C       5.55      22.21      25.05
C       7.06      20.14      26.21
C       5.93      20.64      26.86
C       5.16      21.66      26.29
C       4.01      22.17      26.94
C       3.30      23.22      26.36
C       3.67      23.78      25.14
C       4.90      25.89       7.59
C       4.53      25.50       6.30
C       4.97      24.31       5.73
C       5.92      23.52       6.40
C       6.42      23.96       7.65
C       5.89      25.13       8.27
C       6.37      25.50       9.53
C       7.43      24.83      10.12
C       7.97      23.67       9.53
C       7.43      23.20       8.30
C       6.38      22.31       5.85
C       7.33      21.55       6.52
C       7.90      21.99       7.72
C       8.92      21.27       8.37
C       9.47      21.76       9.55
C       9.03      22.95      10.13
C       8.90       7.53      24.91
C       9.60       7.05      23.81
C       9.30       5.81      23.22
C       8.26       5.02      23.76
C       7.50       5.53      24.85
C       7.81       6.79      25.43
C       7.04       7.28      26.49
C       5.97       6.54      26.99
C       5.66       5.28      26.46
C       6.41       4.77      25.37
C       7.96       3.75      23.25
C       6.89       3.01      23.76
C       6.09       3.51      24.80
C       4.99       2.79      25.30
C       4.27       3.29      26.39
C       4.60       4.51      26.99
C      19.01      21.86       8.83
C      18.62      22.11      10.14
C      19.28      23.06      10.93
C      20.43      23.70      10.43
C      20.84      23.46       9.09
C      20.10      22.57       8.27
C      20.46      22.43       6.92
C      21.57      23.10       6.40
C      22.36      23.93       7.22
C      21.98      24.13       8.57
C      21.17      24.58      11.23
C      22.29      25.24      10.72
C      22.70      25.03       9.39
C      23.80      25.73       8.86
C      24.22      25.46       7.56
C      23.52      24.59       6.72
C      18.97       7.79      25.08
C      18.71       7.52      23.73
C      19.46       6.60      23.00
C      20.58       5.98      23.61
C      20.84       6.21      24.99
C      20.02       7.11      25.73
C      20.27       7.29      27.10
C      21.33       6.63      27.73
C      22.16       5.76      27.01
C      21.90       5.53      25.63
C      21.42       5.12      22.89
C      22.46       4.45      23.52
C      22.69       4.60      24.89
C      23.69       3.85      25.57
C      23.95       4.12      26.91
C      23.23       5.08      27.63
C      24.33       7.03       6.96
C      24.76       5.84       7.56
C      24.06       5.25       8.62
C      22.90       5.88       9.12
C      22.48       7.12       8.57
C      23.19       7.69       7.49
C      22.73       8.90       6.93
C      21.63       9.56       7.46
C      20.90       9.00       8.53
C      21.33       7.77       9.08
C      22.12       5.28      10.13
C      20.97       5.90      10.61
C      20.58       7.16      10.13
C      19.44       7.83      10.65
C      19.07       9.06      10.11
C      19.76       9.64       9.05
C      18.26      22.00      23.37
C      17.99      20.69      23.79
C      18.66      20.11      24.87
C      19.70      20.83      25.50
C      19.98      22.16      25.09
C      19.24      22.76      24.05
C      19.49      24.10      23.71
C      20.52      24.81      24.32
C      21.32      24.21      25.30
C      21.02      22.89      25.72
C      20.46      20.25      26.53
C      21.47      20.97      27.16
C      21.77      22.29      26.76
C      22.82      23.02      27.37
C      23.15      24.29      26.89
C      22.43      24.88      25.85
C       3.44       8.62       3.61
C       3.24       7.91       2.40
C       4.07       6.79       2.12
C       4.98       6.32       3.09
C       5.06       6.94       4.35
C       4.32       8.12       4.59
C      17.31      23.14      19.88
C      15.91      23.16      19.98
C      15.29      22.91      21.22
C      16.07      22.65      22.35
C      17.47      22.52      22.23
C      18.09      22.76      20.99
C       2.77      22.29      30.50
C       2.05      21.06      30.62
C       2.26      20.07      29.60
C       2.90      20.43      28.39
C       3.52      21.68      28.27
C       3.54      22.57      29.36
C      16.35       6.62      12.47
C      16.83       6.48      13.79
C      18.19       6.68      14.06
C      19.06       7.14      13.04
C      18.58       7.26      11.72
C      17.23       6.95      11.43
C       3.77      29.28       8.99
C       2.37      29.16       8.79
C       1.84      27.94       8.33
C       2.67      26.82       8.21
C       4.08      26.97       8.21
C       4.62      28.23       8.57
C      17.56      11.06      26.36
C      16.18      10.81      26.21
C      15.74       9.51      25.90
C      16.67       8.47      25.75
C      18.05       8.75      25.74
C      18.50      10.05      26.07
C       3.65      -0.69      25.40
C       2.75      -0.67      24.29
C       2.92       0.34      23.30
C       3.75       1.45      23.58
C       4.51       1.49      24.76
C       4.55       0.37      25.60
C      17.98      18.48       7.44
C      16.58      18.61       7.49
C      16.01      19.87       7.75
C      16.83      20.99       7.98
C      18.23      20.82       8.10
C      18.81      19.56       7.80
C      24.66      25.67       3.27
C      25.34      24.51       2.80
C      25.17      23.30       3.52
C      24.57      23.31       4.80
C      23.98      24.49       5.30
C      23.95      25.64       4.49
C      12.36       5.21      21.09
C      11.82       5.30      19.79
C      10.43       5.37      19.62
C       9.58       5.47      20.74
C      10.12       5.42      22.05
C      11.51       5.22      22.21
C      25.22       6.39      30.58
C      25.30       5.19      31.35
C      24.35       4.16      31.08
C      23.53       4.22      29.94
C      23.66       5.29      29.04
C      24.44       6.40      29.39
C      11.94      23.92      12.32
C      11.37      23.83      13.60
C       9.98      23.63      13.74
C       9.19      23.36      12.60
C       9.77      23.43      11.32
C      11.13      23.77      11.18
C      24.89       1.58       8.47
C      25.87       1.47       9.49
C      25.97       2.52      10.44
C      25.35       3.76      10.18
C      24.51       3.91       9.07
C      24.18       2.78       8.30
C      10.33      16.88      24.15
C      11.16      16.87      25.30
C      11.11      17.98      26.19
C      10.30      19.10      25.89
C       9.43      19.06      24.78
C       9.40      17.92      23.96
C      24.34      27.34      23.67
C      24.53      28.40      24.59
C      23.74      28.43      25.77
C      22.95      27.32      26.12
C      22.96      26.17      25.31
C      23.60      26.20      24.06
C      12.82      10.85       7.88
C      12.17      12.08       7.63
C      10.76      12.11       7.56
C      10.01      10.96       7.86
C      10.67       9.72       8.07
C      12.08       9.67       8.02
C      25.70      21.43      29.23
C      25.25      21.49      30.57
C      23.96      21.98      30.84
C      23.15      22.48      29.79
C      23.63      22.45      28.47
C      24.90      21.91      28.19
C      11.51       4.95      12.90
C      11.42       5.85      13.99
C      10.47       6.90      13.93
C       9.75       7.14      12.74
C      10.00       6.36      11.59
C      10.84       5.24      11.69
C      26.45       8.97       4.45
C      26.40       8.11       3.31
C      25.56       6.95       3.38
C      24.81       6.69       4.54
C      25.00       7.46       5.70
C      25.83       8.59       5.66
C       9.68      22.07      19.07
C      10.53      23.21      19.16
C      10.39      24.09      20.26
C       9.60      23.71      21.37
C       8.88      22.50      21.33
C       8.84      21.75      20.15
C      26.62       1.64      24.75
C      25.99       0.43      24.43
C      24.58       0.39      24.28
C      23.81       1.53      24.60
C      24.46       2.74      24.95
C      25.86       2.81      24.94
C      11.17      18.86       6.49
C      11.17      17.77       7.39
C      10.19      17.73       8.42
C       9.33      18.82       8.62
C       9.49      19.99       7.85
C      10.38      20.00       6.76
C      24.49      29.32       9.75
C      25.83      29.22      10.19
C      26.35      27.96      10.54
C      25.65      26.79      10.18
C      24.40      26.90       9.54
C      23.78      28.16       9.42
C       9.71      11.19      25.11
C      10.73      11.18      26.09
C      10.87      10.05      26.92
C      10.20       8.85      26.59
C       9.34       8.82      25.48
C       9.03      10.01      24.80
C       1.61       5.17      29.20
C       2.18       5.04      30.48
C       3.58       4.93      30.62
C       4.39       4.81      29.48
C       3.82       4.89      28.19
C       2.44       5.15      28.06
C      17.08      24.72      13.53
C      16.88      23.64      14.43
C      17.72      22.50      14.32
C      18.62      22.38      13.25
C      18.66      23.37      12.25
C      17.93      24.56      12.42
C       2.19      23.09       3.54
C       2.42      23.87       2.39
C       3.67      24.50       2.22
C       4.59      24.53       3.28
C       4.28      23.89       4.49
C       3.13      23.08       4.59
C      17.56       4.86      20.21
C      17.30       5.96      19.35
C      18.03       7.17      19.55
C      18.89       7.30      20.67
C      18.96       6.28      21.63
C      18.33       5.04      21.38
C       2.80      27.38      24.28
C       1.40      27.31      24.23
C       0.76      26.06      24.32
C       1.53      24.89      24.48
C       2.92      24.98      24.68
C       3.56      26.24      24.59
C      18.38      13.15       8.89
C      17.53      13.06       7.76
C      17.66      11.95       6.89
C      18.45      10.85       7.27
C      19.19      10.89       8.48
C      19.22      12.07       9.23
C       3.79       1.09       7.43
C       2.77       1.35       8.38
C       2.67       2.63       8.97
C       3.57       3.65       8.61
C       4.58       3.39       7.67
C       4.70       2.11       7.09
C      16.64      17.56      26.81
C      16.62      16.48      25.88
C      17.54      16.50      24.80
C      18.30      17.66      24.54
C      18.15      18.80      25.35
C      17.36      18.74      26.51
Br       4.40       8.96       6.33
Br       2.48      10.25       4.01
Br       6.08       4.78       2.73
Br       3.99       5.88       0.42
Br      19.99      22.48      20.77
Br      18.16      23.60      18.21
Br      15.22      22.44      24.08
Br      13.38      22.85      21.36
Br       4.60      24.18      29.24
Br       2.78      23.66      31.89
Br       2.82      19.24      26.87
Br       1.64      18.24      29.76
Br      16.59       6.99       9.61
Br      14.47       6.45      12.10
Br      20.85       7.67      13.49
Br      18.89       6.33      15.82
Br       6.51      28.58       8.33
Br       4.53      30.92       9.65
Br       1.88      25.07       8.03
Br      -0.02      27.74       7.85
Br      20.37      10.49      25.98
Br      18.16      12.84      26.84
Br      16.05       6.66      25.46
Br      13.88       9.17      25.53
Br       5.77       0.35      27.10
Br       3.69      -2.16      26.67
Br       3.72       2.99      22.41
Br       1.90       0.37      21.65
Br      20.70      19.27       8.05
Br      18.76      16.79       6.95
Br      16.04      22.74       8.21
Br      14.10      20.06       7.91
Br      22.96      27.19       5.07
Br      24.68      27.33       2.28
Br      24.66      21.73       5.92
Br      25.72      21.60       2.79
Br      12.25       5.04      23.99
Br      14.26       5.18      21.35
Br       7.70       5.81      20.49
Br       9.68       5.36      17.84
Br      24.58       7.89      28.17
Br      26.28       7.95      30.99
Br      22.28       2.80      29.55
Br      24.11       2.68      32.29
Br      11.91      23.98       9.42
Br      13.84      24.13      12.12
Br       7.37      22.77      12.83
Br       9.16      23.74      15.48
Br      22.75       2.90       7.01
Br      24.48       0.12       7.26
Br      25.69       5.28      11.33
Br      26.92       2.29      12.11
Br       8.05      17.77      22.58
Br      10.48      15.59      22.72
Br      10.42      20.71      26.94
Br      12.22      18.06      27.76
Br      23.63      24.62      22.94
Br      25.12      27.38      21.90
Br      21.90      27.34      27.74
Br      23.70      30.00      26.89
Br      13.00       7.97       8.16
Br      14.73      10.80       8.13
Br       8.10      11.11       8.10
Br       9.87      13.74       7.06
Br      25.53      21.84      26.36
Br      27.45      20.73      28.83
Br      21.41      23.21      30.17
Br      23.27      21.93      32.63
Br      11.20       4.17      10.11
Br      12.63       3.37      12.96
Br       8.47       8.58      12.65
Br      10.14       8.05      15.45
Br      26.13       9.59       7.28
Br      27.43      10.64       4.47
Br      23.47       5.30       4.53
Br      25.33       5.71       1.92
Br       7.63      20.25      20.02
Br       9.68      20.91      17.53
Br       9.60      24.77      22.98
Br      11.35      25.77      20.36
Br      26.75       4.50      25.22
Br       0.04       1.71      24.94
Br      21.89       1.37      24.72
Br      23.70      -1.25      23.77
Br      10.65      21.62       5.74
Br      12.34      18.89       4.95
Br       7.99      18.76      10.01
Br      10.06      16.21       9.61
Br      22.00      28.30       8.69
Br      23.66      31.05       9.61
Br      26.44      25.06      10.46
Br      28.07      27.83      11.40
Br       7.71       9.99      23.39
Br       9.22      12.82      24.24
Br      10.56       7.23      27.57
Br      12.05      10.08      28.45
Br       1.67       5.41      26.31
Br      28.21       5.32      29.00
Br       6.27       4.40      29.68
Br       4.37       4.89      32.38
Br      17.97      25.92      11.04
Br      16.15      26.40      13.74
Br      19.76      20.83      13.09
Br      17.67      21.09      15.64
Br       2.80      22.05       6.19
Br       0.54      22.13       3.76
Br       6.24      25.52       3.12
Br       4.12      25.33       0.55
Br      18.38       3.65      22.72
Br      16.82       3.10      19.87
Br      19.90       8.92      20.92
Br      17.88       8.66      18.34
Br       5.42      26.44      25.04
Br       3.69      29.06      23.95
Br       0.66      23.16      24.44
Br      27.36      25.94      24.35
Br      20.35      12.18      10.79
Br      18.41      14.74       9.99
Br      18.40       9.22       6.23
Br      16.69      11.85       5.22
Br       6.10       1.77       5.81
Br       3.95      -0.64       6.60
Br       3.36       5.42       9.34
Br       1.24       3.04      10.19
Br      17.15      20.30      27.62
Br      15.68      17.50      28.48
Br      19.52      17.71      23.04
Br      17.80      14.95      23.68
O      27.52      -0.03      10.47
O       1.45      30.89      10.06
O       1.58       0.01       9.94
O      27.46      30.85      10.83
O      26.84      30.76       8.72
O       1.14      -0.29       7.80
O       0.77      30.59       7.98
O      27.12      -0.16       8.31
O      14.79      12.52      27.16
O      12.40      15.34      26.72
O      12.18      12.76      27.15
O      15.01      15.13      27.04
O      15.13      14.92      24.86
O      12.30      12.56      24.96
O      12.59      15.13      24.54
O      14.88      12.32      24.96
O       0.99      -1.82      23.22
O      26.19      29.63      23.35
O      26.93      -1.32      23.25
O       0.24      29.09      23.15
O       0.30      29.06      25.36
O      27.17      -1.26      25.45
O      26.30      29.68      25.54
O       1.15      -1.93      25.40
O      15.39      16.87       6.38
O      13.34      13.79       6.46
O      12.82      16.36       6.34
O      15.91      14.33       6.51
O      15.78      14.36       8.71
O      12.81      16.50       8.54
O      13.23      13.92       8.66
O      15.36      16.92       8.59
O      26.60      23.62       0.93
O       0.55      19.73      31.86
O       0.71      23.25       0.85
O      26.47      19.89      31.84
O      26.65      22.02      32.40
O       1.00      25.39       1.29
O       0.71      21.86      32.35
O      26.92      25.72       1.48
O      13.28       4.49      18.08
O      15.56       5.05      15.21
O      15.87       4.82      17.78
O      12.98       4.73      15.47
O      12.83       6.92      15.60
O      15.53       6.97      18.10
O      15.40       7.23      15.52
O      12.95       6.67      18.22
O      26.98       5.90      32.83
O       1.68       9.43       1.37
O       1.04       5.85      32.40
O      27.62       9.53       1.88
O      27.46       7.41       1.36
O       0.87       3.70      31.92
O       1.48       7.30       0.91
O      26.80       3.76      32.38
O      14.71      24.46      18.41
O      12.65      24.79      15.35
O      12.14      24.48      17.90
O      15.23      24.67      15.86
O      15.12      22.49      15.55
O      12.23      22.29      17.77
O      12.55      22.59      15.21
O      14.77      22.27      18.12
