22

Cr       4.48       3.80       9.33
Cr       2.73       6.75       9.32
Cr       1.05       3.76       9.41
C       4.19       5.82       7.28
C       0.38       5.94       7.47
C       2.83       2.19       7.43
C       5.05       6.22      11.13
C       1.08       5.56      11.43
C       2.95       2.12      11.26
O       4.01       2.45       7.85
O       1.42       6.63      10.75
O       0.15       4.81      10.92
O       1.88       2.66      10.81
O       2.75       4.77       9.35
O       5.00       5.03       7.89
O       4.06       7.04       7.78
O       1.33       6.62       7.96
O       0.05       4.80       7.91
O       1.79       2.65       8.01
O       4.10       2.46      10.86
O       5.09       5.04      10.69
O       4.15       7.05      10.79
