22

Cr      -4.43       8.95      18.54
Cr      -1.01       8.94      18.80
Cr      -2.73       5.98      18.68
C      -2.74      10.54      20.60
C      -0.76       6.59      20.81
C      -5.13       6.77      20.47
C      -2.42       9.94      16.62
C      -0.38       6.56      16.94
C      -4.79       6.83      16.53
O      -5.48       7.88      19.97
O      -3.76      10.05      19.99
O      -1.56      10.27      20.27
O      -0.53       7.70      20.25
O      -1.45       5.68      20.29
O      -4.17       6.08      19.97
O      -5.27       7.91      16.97
O      -3.57      10.08      17.20
O      -1.35      10.29      17.26
O      -0.33       7.73      17.46
O      -1.24       5.70      17.29
O      -3.98       6.10      17.18
O      -2.72       7.96      18.67
