22

Mn      11.72      12.39       9.62
Mn      12.76      15.41       6.86
O      12.52      16.75       8.24
O      10.48      16.60       7.32
O      14.12      14.94       5.44
O      11.35      13.97       6.21
O      13.60      14.28       8.12
O      12.53      16.42       5.15
C      13.24      10.72       8.29
C      10.96      12.03      11.84
C      13.82      14.41       9.39
C      10.51      11.91      13.23
C      11.24      17.07       8.19
C      13.52      15.76       4.64
C      10.65      13.38       7.08
C      13.97      15.88       3.24
O      11.96      11.04       8.23
O      13.99      11.19       9.16
O      10.36      12.85      11.04
O      13.13      13.82      10.26
O      10.87      13.51       8.36
O      11.95      11.37      11.32
