22

Mn       0.53       8.46       1.38
Mn      -0.51       5.44      -1.38
O      -0.27       4.10       0.00
O       1.76       4.24      -0.92
O      -1.87       5.90      -2.80
O       0.90       6.88      -2.02
O      -1.35       6.57      -0.12
O      -0.28       4.42      -3.08
C      -0.99      10.12       0.05
C       1.30       8.81       3.60
C      -1.58       6.44       1.16
C       1.74       8.93       4.99
C       1.01       3.78      -0.05
C      -1.27       5.09      -3.60
C       1.60       7.46      -1.16
C      -1.72       4.96      -4.99
O       0.29       9.81      -0.00
O      -1.74       9.66       0.92
O       1.90       7.99       2.80
O      -0.88       7.02       2.03
O       1.38       7.34       0.12
O       0.31       9.47       3.09
