23

O       2.42       1.49       4.92
H       3.35      -0.32       6.55
H       4.48       0.72       7.43
H       3.66       2.72       6.06
H       4.49       1.44       5.14
H       3.31       1.90       3.08
H       2.73       3.32       3.97
H       1.25       2.72       2.04
H       0.95       1.12       2.78
C       2.44       1.05       7.89
C       3.52       0.71       6.92
C       3.59       1.67       5.73
C       2.50       2.28       3.73
C       1.16       2.18       3.00
C       0.04       2.76       3.79
N       1.12       1.09       7.64
N       0.50       1.48       8.80
N       1.41       1.67       9.71
N       2.63       1.40       9.17
N      -0.52       2.23       4.89
N      -1.46       3.11       5.33
N      -1.49       4.13       4.52
N      -0.56       3.94       3.53
