23

N       3.31       6.17       4.97
N       3.93       5.79       3.81
N       3.02       5.60       2.90
N       1.79       5.86       3.44
N       4.94       5.04       7.72
N       5.89       4.15       7.28
N       5.91       3.13       8.09
N       4.98       3.33       9.08
O       2.00       5.78       7.69
H       1.07       7.58       6.06
H      -0.06       6.54       5.18
H       0.76       4.55       6.55
H      -0.07       5.82       7.47
H       1.12       5.37       9.53
H       1.69       3.94       8.64
H       3.18       4.55      10.57
H       3.48       6.14       9.83
C       1.98       6.21       4.72
C       0.91       6.56       5.69
C       0.83       5.60       6.88
C       1.93       4.99       8.88
C       3.27       5.09       9.61
C       4.39       4.50       8.82
