13

H       3.65       2.45       3.94
H       4.71       0.15       3.87
C       3.05       1.54       3.91
C       3.63       0.28       3.86
C       2.79      -0.84       3.79
H       3.20      -1.85       3.76
C       0.91       0.65       3.85
C       1.40      -0.65       3.78
C       0.44      -1.79       3.69
H      -0.17       0.83       3.84
N       1.71       1.73       3.91
O       0.93      -2.97       3.49
O      -0.80      -1.58       3.82
