13

C       4.81       6.07      11.52
C       5.39       7.34      11.47
C       4.56       8.46      11.40
C       3.17       8.27      11.37
C       2.67       6.97      11.45
C       2.22       9.42      11.27
O       2.71      10.59      11.07
O       0.98       9.22      11.39
N       3.47       5.89      11.52
H       5.41       5.17      11.55
H       6.48       7.46      11.49
H       4.97       9.47      11.37
H       1.59       6.80      11.44
