13

C       5.69       3.70       6.08
C       5.11       3.75       7.34
C       5.94       3.82       8.46
C       7.33       3.84       8.28
C       7.83       3.77       6.98
C       8.29       3.94       9.42
O       7.80       4.14      10.60
O       9.53       3.82       9.22
H       5.09       3.67       5.17
N       7.03       3.70       5.90
H       5.52       3.85       9.47
H       8.91       3.77       6.80
H       4.03       3.73       7.46
