13

H      10.66      12.77      11.29
H      11.71      15.07      11.35
C      10.63      14.94      11.36
C       9.80      16.05      11.43
C      10.06      13.67      11.32
C       7.91      14.56      11.38
H       6.84      14.38      11.39
C       8.40      15.86      11.44
C       7.44      17.00      11.53
H      10.20      17.06      11.45
N       8.71      13.48      11.31
O       7.93      18.18      11.73
O       6.21      16.79      11.40
