18

Mg       1.36      -0.46       7.86
Mg       3.70       1.10       8.93
O      -0.24       0.80       8.41
Mg      -1.01      -0.62       9.72
O       2.09      -0.02       9.74
O      -2.57      -0.76       8.35
O      -1.82       2.37       8.25
C      -0.64       1.97       8.02
O       0.48      -0.67      11.15
C       1.67      -0.27      10.94
O       2.81      -1.67       7.06
C       4.00      -1.67       7.51
O       2.27       1.35       7.50
O      -2.40       0.50      10.67
O      -0.07      -1.82       8.33
C       1.69       2.50       7.08
C      -2.97       0.26      11.88
C      -0.63      -2.74       7.50
