444

C       9.44      16.80       0.57
C      19.19       0.41       1.85
C       8.94      16.70       3.00
C       8.53      15.36       2.85
C       8.58      14.68       1.61
C       9.02      15.44       0.49
C       0.07       0.54      58.26
C       0.90       1.69      58.39
C       1.35       2.45      57.28
C       1.02       1.99      55.99
C       0.20       0.86      55.80
C      19.35       0.16      56.93
C       0.07       0.47      20.18
C       0.61       0.22      21.47
C       0.23       0.95      22.61
C      -0.72       1.97      22.46
C      18.28       2.26      21.22
C      18.72       1.51      20.10
C      -9.33      16.71      19.03
C      -8.75      15.42      19.16
C      -8.31      14.64      18.05
C      -8.55      15.16      16.76
C      -9.12      16.44      16.56
C       0.32       0.21      17.70
C      -9.39      16.75      39.80
C       9.74      16.41      41.09
C      -9.05      16.37      42.23
C      -7.69      16.69      42.08
C       2.68       0.08      40.84
C       1.81       0.08      39.72
C       9.38      16.77      38.65
C       7.97      16.91      38.77
C       7.08      16.92      37.67
C       7.65      16.86      36.38
C       9.04      16.71      36.18
C       9.87      16.66      37.32
C       9.22      16.12      52.59
C      10.03      15.31      51.77
C       9.82      15.27      50.37
C       8.80      16.03      49.76
C       7.94      16.78      50.61
C       8.16      16.83      51.99
C       8.70      16.13      48.34
C       8.89      15.00      47.50
C       8.95      15.13      46.10
C       8.81      16.39      45.49
C      18.38       0.53      46.31
C      18.33       0.40      47.71
C       9.02      16.56      44.09
C       9.53      16.30      53.97
C      -0.41       1.00      13.36
C      18.10       0.71      12.54
C      18.17       0.90      11.14
C      -0.28       1.41      10.53
C       0.80       1.76      11.37
C       0.74       1.56      12.76
C      -0.15       1.44       9.11
C      18.40       1.85       8.27
C      18.48       1.73       6.87
C       0.03       1.21       6.26
C       1.12       0.85       7.08
C       1.03       0.96       8.48
C       0.07       0.94       4.86
C      19.20       0.64      14.74
C      -8.70      16.90      32.98
C       1.42       1.02      32.15
C       1.55       0.86      30.76
C      -8.40      16.58      30.15
C      -8.63      15.46      30.99
C      -8.78      15.62      32.38
C      -8.44      16.45      28.72
C       2.26       0.18      27.89
C       2.11       0.17      26.49
C      -8.73      16.41      25.87
C      10.04      15.64      26.70
C      10.17      15.67      28.10
C      -8.97      16.51      24.47
C       0.80       0.09      34.36
C       3.00       5.54      58.62
C       2.72       6.60       0.66
C       3.58       7.70       0.80
C       4.81       7.80       0.10
C       5.11       6.70      58.08
C       4.23       5.61      57.92
C       5.69       8.92       0.24
C       5.55       9.85       1.31
C       6.36      10.99       1.42
C       7.39      11.28       0.49
C       7.55      10.34      58.28
C       6.73       9.21      58.17
C       8.18      12.47       0.54
C       2.11       4.45      58.48
C      -6.47      11.67      19.39
C      -5.40      11.39      20.28
C      -4.88      10.09      20.42
C      14.20       8.97      19.71
C      13.10       9.27      18.85
C      12.60      10.57      18.69
C      14.74       7.65      19.86
C      -4.00       7.31      20.92
C      -3.42       6.03      21.04
C      15.93       5.00      20.11
C      15.04       5.33      19.05
C      14.46       6.61      18.94
C      16.56       3.72      20.16
C      -6.97      12.99      19.25
C       3.58      16.81      39.01
C       2.80      16.03      39.90
C       1.42      16.23      40.03
C      10.53       0.26      39.33
C      11.33       1.06      38.47
C      12.71       0.84      38.30
C       9.12       0.45      39.47
C      -1.43      16.86      40.54
C       6.98       0.00      40.65
C       6.22       0.75      39.72
C       6.95       1.36      38.67
C       8.35       1.21      38.55
C       4.80       0.84      39.77
C       4.97      16.58      38.87
C      -0.26      11.07      58.41
C      -0.31      11.67       0.85
C      -0.75      10.97       2.00
C      -1.16       9.63       1.85
C      -1.11       8.95       0.61
C      -0.67       9.71      58.33
C       0.19      11.79      57.26
C       1.01      12.95      57.39
C       1.47      13.71      56.28
C       1.13      13.25      54.99
C       0.31      12.12      54.80
C      -0.15      11.42      55.93
C       0.18      11.73      19.18
C       0.73      11.48      20.47
C       0.35      12.21      21.61
C      -0.61      13.23      21.46
C      -1.22      13.52      20.22
C      -0.78      12.77      19.10
C       0.59      10.98      18.03
C       1.17       9.69      18.16
C       1.61       8.91      17.05
C       1.37       9.43      15.76
C       0.81      10.71      15.56
C       0.44      11.46      16.70
C       0.54      11.02      38.80
C       0.05      10.68      40.09
C       0.87      10.64      41.23
C       2.23      10.96      41.08
C       2.79      11.34      39.84
C       1.92      11.34      38.72
C      -0.32      11.04      37.65
C      -1.72      11.18      37.77
C      -2.61      11.19      36.67
C      -2.05      11.13      35.38
C      -0.66      10.98      35.18
C       0.18      10.93      36.32
C      -0.47      10.39      51.59
C       0.33       9.58      50.77
C       0.13       9.54      49.37
C      -0.90      10.30      48.76
C      -1.75      11.05      49.61
C      -1.54      11.10      50.99
C      -0.99      10.40      47.34
C      -0.81       9.27      46.50
C      -0.75       9.40      45.10
C      -0.88      10.67      44.49
C      -1.12      11.79      45.31
C      -1.17      11.66      46.71
C      -0.67      10.83      43.09
C      -0.16      10.57      52.97
C      -0.29      12.25      12.36
C      -1.40      11.97      11.54
C      -1.33      12.16      10.14
C      -0.16      12.66       9.53
C       0.92      13.02      10.37
C       0.86      12.82      11.76
C      -0.03      12.70       8.11
C      -1.10      13.11       7.27
C      -1.02      12.99       5.87
C       0.15      12.46       5.26
C       1.24      12.11       6.08
C       1.15      12.22       7.48
C       0.19      12.20       3.86
C      -0.30      11.90      13.74
C       1.23      11.17      31.98
C       1.53      12.27      31.15
C       1.67      12.12      29.76
C       1.52      10.85      29.15
C       1.29       9.73      29.99
C       1.14       9.89      31.38
C       1.48      10.72      27.72
C       2.37      11.44      26.89
C       2.23      11.43      25.49
C       1.20      10.68      24.87
C       0.34       9.92      25.70
C       0.48       9.94      27.10
C       0.95      10.78      23.47
C       0.92      11.35      33.36
C       3.12      16.80      57.62
C      12.64       0.87      58.51
C      13.50       1.97      58.65
C      14.74       2.07      57.94
C      15.03       0.97      57.08
C       4.35      16.87      56.92
C      15.61       3.19      58.09
C      15.48       4.12       0.31
C      16.29       5.27       0.42
C      -2.30       5.55      58.34
C      -2.14       4.62      57.28
C      16.65       3.48      57.17
C      -1.51       6.74      58.39
C       2.23      15.70      57.48
C       3.46       5.94      18.39
C       4.52       5.66      19.28
C       5.04       4.36      19.42
C       4.51       3.25      18.71
C       3.41       3.54      17.85
C       2.91       4.84      17.69
C       5.05       1.92      18.86
C       5.92       1.58      19.92
C       6.50       0.30      20.04
C      -3.57      16.26      19.11
C      -4.46      16.59      18.05
C       4.77       0.88      17.94
C      -2.94      14.98      19.16
C       2.96       7.26      18.25
C      -6.11      11.08      38.01
C      12.73      10.30      38.90
C      11.34      10.50      39.03
C      10.64      11.52      38.33
C      11.44      12.32      37.47
C      -6.79      12.10      37.30
C       9.23      11.71      38.47
C       8.49      11.13      39.54
C       7.10      11.26      39.65
C       6.34      12.01      38.72
C       7.07      12.61      37.67
C       8.46      12.47      37.55
C       4.92      12.10      38.77
C      -4.72      10.85      37.87
H      -0.24       1.41       1.97
H       9.04      14.98      58.43
H       8.21      14.86       3.68
H       1.29       1.92       0.45
H       1.33       2.52      55.18
H       8.85      16.41      56.77
H      -0.38       1.32      53.93
H       2.59       3.88      56.63
H      17.89       0.05       4.78
H       7.73      13.06       2.38
H      -8.42      16.54      21.59
H      18.31       1.72      19.20
H      -0.99       2.50      23.30
H      10.87      14.97      20.07
H      -8.24      14.63      15.95
H       0.02       1.17      17.54
H      -8.44      16.71      14.70
H      11.91      12.85      17.40
H       0.95       1.53      24.39
H      17.30       3.81      21.99
H       8.78      16.07      41.20
H       2.19       0.32      38.82
H      -7.10      16.66      42.91
H      17.38       0.15      39.68
H       7.03      16.86      35.56
H      -8.76      16.44      37.16
H       8.93      15.98      34.32
H      15.03       0.29      37.01
H      -8.91      15.46      44.01
H       4.51       0.16      41.61
H      16.99       0.35      50.21
H      17.35       0.43      52.56
H       9.01      14.07      47.91
H       9.11      14.29      45.54
H      18.31       1.47      45.91
H      10.83      14.80      52.16
H      18.24       1.25      48.27
H      10.49      14.74      49.80
H       1.67       2.15      10.98
H       1.56       1.80      13.33
H      17.53       2.21       8.68
H      17.68       2.01       6.31
H       1.96       0.43       6.68
H      17.26       0.27      12.93
H       1.81       0.61       9.04
H      17.37       0.59      10.57
H      10.88      14.52      30.59
H      10.63      14.79      32.94
H       3.00       0.75      28.30
H       2.76       0.73      25.92
H       9.26      15.12      26.29
H       1.46       1.96      32.54
H       9.48      15.17      28.65
H       1.68       1.70      30.19
H       6.00       6.64      57.59
H       4.54       4.85      57.31
H       4.87       9.71       2.05
H       6.15      11.62       2.20
H       8.26      10.49      57.56
H       1.84       6.62       1.19
H       6.88       8.63      57.34
H       3.24       8.46       1.40
H      12.61       8.52      18.36
H      11.78      10.69      18.08
H      -3.78       7.96      21.67
H      -2.77       5.90      21.81
H      14.81       4.64      18.33
H      -4.94      12.14      20.80
H      13.89       6.77      18.11
H      -4.06      10.00      21.01
H      10.93       1.86      37.97
H      13.22       1.49      37.70
H      -0.97      16.34      41.29
H      -3.26      16.49      41.43
H       6.47       1.89      37.94
H       3.23      15.26      40.42
H       8.77       1.63      37.72
H       0.93      15.56      40.63
H      -0.12      12.66       0.97
H      -0.66       9.25      57.43
H      -1.48       9.13       2.68
H       1.40      13.18      58.30
H       1.44      13.78      54.18
H      -0.84      10.68      55.77
H      -0.26      12.57      52.93
H       2.71      15.14      55.63
H      -1.61      11.31       3.78
H      -1.96       7.34       1.38
H       1.50      10.81      20.59
H      -1.19      12.98      18.20
H      -0.88      13.76      22.30
H       1.18       9.24      19.07
H       1.68       8.90      14.95
H       0.14      12.43      16.54
H       1.49      10.98      13.70
H       2.22       7.13      16.40
H       1.07      12.78      23.39
H      -2.20      15.07      20.99
H      -0.91      10.34      40.20
H       2.31      11.58      37.82
H       2.83      10.93      41.91
H      -2.12      11.40      38.68
H      -2.66      11.13      34.56
H       1.16      10.71      36.16
H      -0.77      10.26      33.32
H      -4.47      11.55      36.01
H       1.01       9.74      43.01
H       4.62      11.41      40.61
H      -2.51      11.61      49.21
H      -2.15      11.69      51.56
H      -0.68       8.34      46.91
H      -0.58       8.56      44.54
H      -1.19      12.73      44.91
H       1.13       9.07      51.16
H      -1.26      12.51      47.27
H       0.80       9.01      48.80
H       1.78      13.41       9.98
H       1.68      13.05      12.33
H      -1.97      13.47       7.68
H      -1.82      13.27       5.31
H       2.08      11.69       5.68
H      -2.24      11.53      11.93
H       1.93      11.86       8.04
H      -2.13      11.85       9.57
H       1.19       8.80      29.59
H       0.94       9.06      31.95
H       3.12      12.01      27.30
H       2.88      11.99      24.92
H      -0.44       9.39      25.29
H       1.57      13.22      31.54
H      -0.21       9.44      27.65
H       1.79      12.96      29.19
H      15.92       0.91      56.59
H       4.65      16.11      56.31
H      14.80       3.98       1.05
H      16.08       5.89       1.20
H      -1.43       4.76      56.56
H      11.76       0.89       0.19
H      16.80       2.90      56.34
H      13.17       2.73       0.40
H       2.92       2.79      17.36
H       2.09       4.96      17.09
H       6.14       2.24      20.67
H       7.15       0.17      20.81
H      -4.69      15.90      17.33
H       4.98       6.41      19.80
H       4.20       1.04      17.11
H       5.86       4.28      20.01
H      11.05      13.12      36.97
H      -6.28      12.75      36.70
H       8.95      10.61      40.29
H       6.66      10.77      40.43
H       6.59      13.15      36.94
H      13.15       9.53      39.42
H       8.89      12.88      36.72
H      10.86       9.83      39.63
N      -0.23       0.56      54.52
N       2.11       3.58      57.42
N      18.65       0.31       4.23
N       8.14      13.39       1.56
N      -9.17      16.96      15.29
N      -7.72      13.42      18.19
N       0.80       0.73      23.85
N      17.38       3.30      21.17
N       9.51      16.50      34.91
N      15.53       0.03      37.81
N      10.09      15.99      43.46
N       4.03       0.34      40.79
N      -0.11      11.81      53.52
N       2.23      14.84      56.42
N      -0.85      11.57       3.23
N      -1.56       7.66       0.56
N       0.75      11.23      14.29
N       2.20       7.69      17.19
N       0.91      11.99      22.85
N      -2.12      14.56      20.17
N      -0.18      10.77      33.91
N      -3.97      11.29      36.81
N       0.40      10.27      42.46
N       4.14      11.60      39.79
O      18.13       0.56      43.47
O      10.03      15.24      54.65
O       1.27       1.05       4.23
O      18.04       0.74      15.42
O      10.14      15.41      23.85
O       1.47       1.05      35.04
O       9.10      12.64      58.41
O       1.07       4.38       0.51
O      16.25       2.84      19.18
O      -6.50      13.93      20.12
O       4.19       1.55      38.79
O       5.55      15.72      39.74
O      -1.37      11.82      42.47
O       0.34       9.51      53.65
O       1.39      12.31       3.23
O      -1.46      12.00      14.42
O       0.45       9.68      22.85
O       1.59      12.31      34.04
O      -0.59       6.91      57.41
O       1.19      15.64      58.35
O      -3.25      14.10      18.18
O       3.42       8.20      19.12
O       4.31      12.80      37.79
O      -4.14       9.99      38.74
