12

Cu       1.12       3.82       5.20
O       1.17       5.78       5.25
H      -1.35       2.85       4.46
O       1.21       3.75       7.16
O       1.50       1.91       5.20
O       1.46       3.95       3.30
C       2.24       6.51       5.39
C       2.70       1.43       5.25
C       2.65       4.12       2.82
C       2.28       3.74       7.88
N      -1.68       4.31       5.72
N      -0.89       3.61       4.98
