22

C       4.05       2.89       9.73
C       2.87       2.32       8.93
H       5.92       3.94       9.38
H       5.55       2.70       8.19
C       4.48       4.56       7.87
C       2.24       3.40       8.04
H       3.63       3.17       6.42
C       2.64       5.03       6.16
H       3.69       3.69      10.39
H       2.12       1.88       9.61
H       3.23       1.49       8.31
H       5.23       4.96       7.18
H       4.13       5.41       8.46
H       1.39       2.99       7.47
H       1.83       4.21       8.67
O       2.98       6.26       6.28
O       4.40       0.62      10.49
O       1.76       4.64       5.33
O       5.56       2.25      11.49
C       5.10       3.50       8.79
C       4.71       1.86      10.63
C       3.29       3.99       7.08
