20

Er       7.43       5.12      15.73
Er       3.36       4.73      16.08
C       9.69       4.18      18.00
C       7.72       7.31      17.45
C       5.21       2.92      17.35
C      10.19       5.67      13.82
C       3.08       2.54      14.37
C       5.58       6.93      14.47
O       8.62       4.12      17.34
O      10.77       4.60      17.54
O       8.68       6.99      16.69
O       6.70       6.56      17.51
O       5.71       3.88      16.70
O       3.97       2.76      17.34
O       2.17       5.73      14.48
O       9.10       5.24      14.28
O       2.11       2.86      15.13
O       4.09       3.29      14.31
O       5.09       5.97      15.12
O       6.82       7.09      14.47
