20

Er       4.79       2.72       8.13
Er       5.56       6.73       7.78
C       2.59       2.63       6.41
C       7.19       4.73       6.52
C       5.53       0.38       5.87
C       7.76       6.82       9.49
C       3.16       4.72       9.39
C       4.00       0.02      10.04
O       2.82       1.64       7.17
O       3.43       3.57       6.35
O       6.19       4.32       7.17
O       7.46       5.95       6.52
O       5.68       1.44       6.53
O       5.83       8.39       6.33
O       7.53       7.81       8.74
O       6.93       5.88       9.55
O       4.17       5.13       8.74
O       2.89       3.50       9.39
O       4.67       8.01       9.38
O       4.52       1.06       9.58
