11

Cd       5.95       3.90       2.68
C       3.75       5.07       4.80
C       2.91       5.09       2.79
N       4.01       4.76       3.49
N       5.29       2.39       1.14
C       6.86       6.27       1.47
C       5.05       1.04       1.26
C       5.11       2.71      -0.14
O       6.36       2.93       4.73
O       7.12       5.89       2.69
C       7.50       2.41       4.46
