14

Cu      -0.00      15.43       1.00
C       1.81      14.69      -1.07
O      -1.40      16.60       1.77
Cu      -0.00      16.84      -1.00
O      -1.39      17.90      -0.10
O       1.40      16.60       1.77
O       1.39      17.90      -0.10
C      -1.81      14.69      -1.07
O      -1.40      15.67      -1.77
O      -1.39      14.37       0.10
C       1.81      17.58       1.07
C      -1.81      17.58       1.07
O       1.40      15.67      -1.77
O       1.39      14.37       0.10
