26

Gd       7.45       7.66       7.66
Gd      12.42       7.66       7.66
S       9.93       7.16      10.45
S       9.93       8.16       4.86
S       9.93       4.86       7.16
S       9.93      10.45       8.16
S       4.96       8.16      10.45
S       4.96       7.16       4.86
S       4.96      10.45       7.16
S       4.96       4.86       8.16
O       8.69       7.08       9.63
O       8.69       8.24       5.69
O       8.69       5.69       7.08
O       8.69       9.62       8.24
O       6.18       8.24       9.60
O       6.18       7.08       5.71
O       6.18       9.60       7.08
O       6.18       5.71       8.24
O      11.15       8.24       5.71
O      11.15       7.08       9.60
O      11.15       9.60       8.24
O      11.15       5.71       7.08
O       3.72       7.08       5.69
O       3.72       8.23       9.63
O       3.72       5.68       8.23
O       3.72       9.63       7.08
