13

C      -0.74       4.21      23.62
C      -1.41       3.22      24.33
C      -2.81       3.40      24.33
O       1.06       5.20      22.50
C       0.71       4.39      23.45
O       1.49       3.78      24.24
C      -3.19       4.55      23.64
C      -4.54       5.08      23.43
O      -4.69       6.24      22.92
O      -5.55       4.31      23.71
S      -1.83       5.37      22.95
H      -0.90       2.39      24.81
H      -3.53       2.76      24.82
