29

C       0.93       0.96      22.32
C       1.38       0.55      23.57
C       0.56      -0.27      24.36
C      -0.72      -0.57      23.88
C      -1.11      -0.12      22.63
C       1.07      -0.90      25.63
C       1.53      -2.34      25.32
C       1.94      -3.16      26.56
C       0.78      -3.39      27.48
C       0.50      -2.52      28.54
C      -0.63      -2.72      29.33
C      -1.21      -4.62      28.12
C      -0.11      -4.46      27.28
H       1.56       1.54      21.66
H       2.36       0.85      23.92
H      -1.41      -1.19      24.46
H      -2.09      -0.35      22.21
H       0.27      -0.92      26.38
H       1.91      -0.32      26.04
H       0.71      -2.87      24.80
H       2.37      -2.32      24.62
H       2.76      -2.65      27.10
H       2.35      -4.12      26.22
H       1.16      -1.68      28.75
H      -0.87      -2.06      30.15
H      -1.90      -5.45      27.99
H       0.05      -5.17      26.47
N      -0.29       0.61      21.84
N      -1.47      -3.76      29.13
