29

C       3.00       4.33       8.27
C       2.56       4.74       9.52
C       3.38       5.56      10.30
C       4.66       5.86       9.80
C       5.04       5.41       8.55
C       2.88       6.20      11.57
C       2.42       7.64      11.24
C       2.00       8.47      12.47
C       3.17       8.72      13.39
C       3.46       7.86      14.46
C       4.58       8.09      15.25
C       5.15       9.96      14.01
C       4.05       9.79      13.17
N       4.21       4.67       7.77
H       1.58       4.43       9.88
H       2.36       3.74       7.61
H       6.01       5.64       8.12
H       3.68       6.23      12.32
H       2.05       5.62      11.98
H       3.22       8.16      10.71
H       1.57       7.60      10.55
H       1.20       7.96      13.02
H       5.35       6.48      10.38
H       1.60       9.43      12.12
H       2.80       7.02      14.68
H       4.83       7.44      16.08
H       5.83      10.80      13.87
H       3.89      10.49      12.36
N       5.41       9.13      15.04
