13

O      -1.10       8.05      15.45
C      -0.92       5.72      15.95
C       0.16       5.31      15.17
C       0.45       3.94      15.34
C      -0.40       3.33      16.26
C      -1.61       7.03      16.00
C      -0.50       1.92      16.69
H       0.66       5.98      14.49
H       1.22       3.39      14.80
O      -2.72       7.05      16.66
S      -1.55       4.44      16.91
O      -1.30       1.69      17.67
O       0.15       1.03      16.05
