171

C       9.73      29.20      17.04
C       0.32      28.03      17.57
C       0.58      26.92      16.75
C       0.25      26.96      15.38
C       9.68      28.13      14.84
C       9.41      29.24      15.67
C       0.45      25.86      14.56
C       9.71      24.74      14.67
C       9.82      23.64      13.83
C       9.81      23.79      12.42
C       9.82      22.66      11.57
C       9.81      21.37      12.15
C       9.82      21.19      13.56
C       9.81      22.34      14.38
C       9.70      19.92      14.09
C       0.45      19.45      15.11
C       0.25      18.20      15.65
C       9.67      18.08      16.94
C       0.58      17.03      14.94
C       0.32      15.76      15.49
C       9.73      15.64      16.76
C       9.41      16.81      17.48
C       9.70      22.83      10.20
C       0.44      22.18       9.29
C       0.25      22.34       7.93
C       0.58      23.55       7.28
C       9.67      21.29       7.18
C       9.41      21.45       5.81
C       9.73      22.66       5.16
C       0.32      23.70       5.90
C       0.30      -6.73      21.96
C       9.73      -5.55      21.42
C       9.50      -4.43      22.24
C       9.84      -4.46      23.61
C       0.40      -5.64      24.15
C       0.64      -6.76      23.33
C       9.65      -3.36      24.42
C       0.39      -2.25      24.30
C       0.29      -1.14      25.13
C       0.30      -1.27      26.54
C       0.29      -0.14      27.38
C       0.30       1.15      26.79
C       0.29       1.31      25.39
C       0.30       0.16      24.57
C       0.39       2.59      24.85
C       9.65       3.04      23.82
C       9.84       4.29      23.27
C       0.40       4.41      21.98
C       9.50       5.46      23.99
C       9.73       6.73      23.42
C       0.30       6.85      22.14
C       0.64       5.68      21.43
C       0.39      -0.31      28.76
C       9.65       0.36      29.66
C       9.84       0.21      31.02
C       9.50      -1.00      31.68
C       0.40       1.26      31.77
C       0.64       1.11      33.15
C       0.30      -0.09      33.81
C       9.73      -1.14      33.06
C       0.20      22.70       1.41
C       8.89      22.47       0.93
C       8.60      -0.16      38.50
C       9.67      -0.09      37.55
C       0.98       0.14      38.03
C       1.24      22.77       0.46
C       7.19      -0.37      38.08
C       0.54      22.84       2.85
C       9.40      -0.23      36.08
C       0.20      12.37      18.61
C       8.89      12.07      19.04
C       8.60      10.95      19.85
C       9.67      10.09      20.26
C       0.98      10.40      19.82
C       1.24      11.51      19.01
C       7.19      10.70      20.24
C       0.54      13.55      17.76
C       9.40       8.89      21.12
C       0.20      32.43      18.95
C       8.89      32.95      18.99
C       8.60     -10.76      19.56
C       9.67      -9.97      20.09
C       0.98     -10.50      20.05
C       1.24      33.21      19.49
C       7.19     -10.29      19.58
C       0.54      31.11      18.35
C       9.40      -8.63      20.70
H       0.55      27.98      18.57
H       1.00      26.08      17.16
H       8.97      30.07      15.27
H       9.42      28.18      13.85
H       9.76      22.23      15.40
H       9.76      24.72      12.01
H       9.76      20.54      11.55
H       1.00      24.32       7.80
H       9.41      18.91      17.47
H       8.97      16.74      18.40
H       0.55      14.92      14.94
H       1.00      17.09      14.00
H       0.55      24.59       5.45
H       8.96      20.69       5.29
H       9.41      20.41       7.64
H       1.12      20.04      15.54
H       9.02      19.31      13.68
H       1.12      25.94      13.83
H       9.03      24.69      15.40
H       1.12      21.51       9.58
H       9.02      23.49       9.88
H       8.81      13.87      16.67
H       8.81      30.00      18.61
H       8.81      23.62       3.67
H       9.49      -5.51      20.43
H       9.09      -3.59      21.82
H       1.07      -7.60      23.74
H       0.66      -5.69      25.14
H       0.34       0.26      23.55
H       0.34      -2.21      26.96
H       0.34       1.98      27.40
H       9.09      -1.78      31.16
H       0.67       3.58      21.45
H       1.07       5.75      20.50
H       9.49       7.57      23.96
H       9.09       5.40      24.92
H       9.49      -2.02      33.52
H       1.07       1.88      33.67
H       0.67       2.14      31.32
H       8.98       2.44      23.40
H       1.07       3.20      25.25
H       8.98      -3.43      25.15
H       1.07      -2.20      23.57
H       8.98       1.03      29.36
H       1.07      -0.96      29.09
H       1.17       8.65      22.19
H       1.17      -7.58      20.38
H       1.17      -1.03      35.34
H       8.12      22.40       1.61
H       1.77       0.22      37.39
H       2.20      22.93       0.76
H       6.49      -0.38      38.93
H       7.09      -1.33      37.57
H       6.87       0.43      37.41
H       1.08      23.78       2.99
H       1.23      22.02       3.10
H       8.88      -1.18      35.92
H       8.74       0.59      35.80
H       8.12      12.69      18.76
H       1.77       9.80      20.08
H       2.20      11.69      18.72
H       6.49      11.43      19.83
H       7.09      10.73      21.33
H       6.87       9.72      19.89
H       1.08      13.20      16.87
H       1.23      14.17      18.34
H       8.88       9.22      22.02
H       8.74       8.24      20.56
H       8.12      32.40      18.59
H       1.77      -9.98      20.44
H       2.20      32.87      19.48
H       6.49     -11.01      19.15
H       7.09      -9.36      19.01
H       6.87     -10.11      20.61
H       1.08      30.51      19.10
H       1.23      31.30      17.52
H       8.88      -8.01      19.97
H       8.74      -8.79      21.55
N       9.40      14.39      17.33
N       9.40      30.32      17.83
N       9.40      22.79       3.79
N       0.59       8.10      21.54
N       0.59      -7.87      21.18
N       0.59      -0.20      35.19
