20

C      17.88      12.40      14.17
C      17.52      16.09      15.01
C      20.24      14.21      17.81
C      19.02      13.01      19.38
N      19.09      13.62      18.17
N      13.93      14.03      13.58
C      15.14      15.24      17.58
O      18.40      12.76      15.28
O      16.76      12.80      13.71
O      18.10      15.51      15.98
O      16.50      15.66      14.37
O      14.62      14.89      16.47
O      16.26      14.85      18.04
O      14.91      12.14      15.78
O      16.51      11.99      17.38
C      15.50      11.55      16.74
Zn      17.52      13.72      16.89
Zn      15.49      13.93      14.87
C      12.78      13.43      13.95
C      13.99      14.63      12.37
