20

C       7.24       2.27       8.81
C       4.52       0.39       6.01
C       5.74      -0.81       4.44
C       6.88      -1.42       9.65
C       9.26      -2.27       7.07
N       5.67      -0.21       5.64
N      10.83       0.21      10.24
O       6.66       1.68       7.84
O       8.26       1.83       9.45
C      11.98      -0.39       9.87
C      10.77       0.81      11.44
O       6.36      -1.07       8.54
O       8.00      -1.02      10.10
O       9.85      -1.68       8.04
O       8.25      -1.83       6.43
O      10.14       1.07       7.34
O       8.50       1.02       5.77
Zn       7.24      -0.11       6.93
Zn       9.27       0.11       8.95
C       9.62       1.42       6.23
