128

Sc       9.03       3.25      13.41
Sc       7.33       6.19      13.41
Sc       5.64       3.25      13.41
Sc      -1.69       9.44       4.47
Sc       0.01       6.51       4.47
Sc       1.70       9.44       4.47
H       8.81       7.71      15.97
H       3.58       3.77      15.97
H       9.60       1.22      15.97
H      -1.47       4.99       7.03
H       3.75       8.92       7.03
H      -2.26      11.48       7.03
H      -3.74       8.92       1.92
H       2.28      11.48       1.92
H       1.48       4.99       1.92
H      11.08       3.77      10.86
H       5.06       1.22      10.86
H       5.86       7.71      10.86
H      -1.47       4.99       1.92
H       3.75       8.92       1.92
H      -2.26      11.48       1.92
H       8.81       7.71      10.86
H       3.58       3.77      10.86
H       9.60       1.22      10.86
H      11.08       3.77      15.97
H       5.06       1.22      15.97
H       5.86       7.71      15.97
H      -3.74       8.92       7.03
H       2.28      11.48       7.03
H       1.48       4.99       7.03
C      10.06       7.23      17.29
C       3.37       5.09      17.29
C       8.56       0.37      17.29
C      -2.72       5.47       8.35
C       3.96       7.61       8.35
C      -1.23      12.32       8.35
C      -3.95       7.61       0.59
C       1.25      12.32       0.59
C       2.73       5.47       0.59
C      11.29       5.09       9.53
C       6.09       0.37       9.53
C       4.61       7.23       9.53
C      -2.72       5.47       0.59
C       3.96       7.61       0.59
C      -1.23      12.32       0.59
C      10.06       7.23       9.53
C       3.37       5.09       9.53
C       8.56       0.37       9.53
C      11.29       5.09      17.29
C       6.09       0.37      17.29
C       4.61       7.23      17.29
C      -3.95       7.61       8.35
C       1.25      12.32       8.35
C       2.73       5.47       8.35
C       9.67       5.58      15.45
C      10.35       5.97      16.68
C       4.99       5.58      15.45
C       4.32       5.97      16.68
C       7.33       1.53      15.45
C       7.33       0.75      16.68
C      -2.33       7.11       6.51
C      -3.01       6.73       7.73
C       2.35       7.11       6.51
C       3.02       6.73       7.73
C       0.01      11.17       6.51
C       0.01      11.95       7.73
C      -2.33       7.11       2.43
C      -3.01       6.73       1.21
C       0.01      11.17       2.43
C       0.01      11.95       1.21
C       2.35       7.11       2.43
C       3.02       6.73       1.21
C       9.67       5.58      11.37
C      10.34       5.97      10.15
C       7.33       1.53      11.37
C       7.33       0.75      10.15
C       4.99       5.58      11.37
C       4.32       5.97      10.15
O       9.92       4.43      14.90
O       9.16       8.12      16.79
O       5.87       6.38      14.90
O       3.05       3.87      16.79
O       6.20       1.90      14.90
O       9.78       0.70      16.79
O      -2.58       8.27       5.96
O      -1.82       4.58       7.85
O       1.47       6.32       5.96
O       4.29       8.82       7.85
O       1.14      10.80       5.96
O      -2.44      11.99       7.85
O      -1.45       6.32       2.98
O      -4.27       8.83       1.09
O      -1.12      10.80       2.98
O       2.46      11.99       1.09
O       2.59       8.27       2.98
O       1.83       4.58       1.09
O       8.79       6.38      11.93
O      11.61       3.87      10.03
O       8.46       1.90      11.93
O       4.88       0.70      10.03
O       4.75       4.43      11.93
O       5.51       8.12      10.03
O      -2.58       8.27       2.98
O      -1.82       4.58       1.09
O       1.47       6.32       2.98
O       4.29       8.82       1.09
O       1.14      10.80       2.98
O      -2.44      11.99       1.09
O       9.92       4.43      11.93
O       9.16       8.12      10.03
O       5.87       6.38      11.93
O       3.05       3.87      10.03
O       6.20       1.90      11.93
O       9.78       0.70      10.03
O       8.79       6.38      14.90
O      11.61       3.87      16.79
O       8.46       1.90      14.90
O       4.88       0.70      16.79
O       4.75       4.43      14.90
O       5.51       8.12      16.79
O      -1.45       6.32       5.96
O      -4.27       8.83       7.85
O      -1.12      10.80       5.96
O       2.46      11.99       7.85
O       2.59       8.27       5.96
O       1.83       4.58       7.85
O       7.33       4.23      13.42
O       0.01       8.47       4.47
