21

H       9.89       7.34       0.69
H      10.96      10.28       3.67
H       6.92       8.78       3.45
H      12.35       6.68       1.30
O       6.07       7.59       1.34
O       7.68       6.11       0.68
O       7.59       9.96       5.62
O       9.21      11.48       5.09
C       7.26       7.16       1.28
C       8.30       7.98       1.99
C       9.62       7.97       1.53
C      10.56       8.79       2.15
C      10.21       9.63       3.21
C       8.90       9.60       3.69
C       7.94       8.78       3.08
C       8.53      10.42       4.90
C      12.66       7.72       1.29
N      11.91       8.77       1.68
N      12.67       9.91       1.56
N      13.83       9.53       1.10
N      13.85       8.17       0.92
