672

H       5.34      12.20      38.97
H       6.51      11.00      35.30
H       1.85      12.62      33.12
H       3.22      12.45      32.25
H       6.97       7.55      41.17
H       6.85       8.95      42.03
H       5.66       8.65      36.77
H       2.98      11.38      37.53
H       7.33      11.91      17.74
H       6.16      13.12      14.07
H      10.82      11.49      11.89
H       9.45      11.66      11.02
H       5.70      16.56      19.94
H       5.82      15.17      20.80
H       7.01      15.47      15.54
H       9.69      12.74      16.29
H      18.87      23.76       7.12
H      20.04      24.93       3.45
H      18.42      20.26       1.28
H      18.56      21.64       0.41
H      23.52       0.02       9.32
H      22.12      25.26      10.17
H      22.42      24.08       4.91
H      19.73      21.38       5.67
H      19.17       0.37      28.35
H      17.99      24.56      24.69
H      19.61       3.87      22.51
H      19.46       2.49      21.64
H      14.52      24.11      30.55
H      15.91      24.23      31.41
H      15.61       0.05      26.15
H      18.31       2.74      26.90
H       7.39      12.23      24.68
H       6.19      11.06      28.35
H      10.84      12.68      30.56
H       9.44      12.57      31.41
H       5.76       7.56      22.51
H       5.94       8.94      21.63
H       7.01       8.70      26.91
H       9.74      11.38      26.15
H       5.28      11.89       3.45
H       6.49      13.05       7.12
H       1.83      11.44       9.32
H       3.23      11.55      10.18
H       6.91      16.55       1.27
H       6.74      15.18       0.40
H       5.66      15.42       5.68
H       2.93      12.74       4.92
H      19.19      23.69      14.07
H      18.06      24.90      17.73
H      19.68      20.25      19.93
H      19.59      21.65      20.78
H      14.53      25.33      11.90
H      15.90      25.15      11.02
H      15.66      24.08      16.30
H      18.31      21.33      15.55
H      18.85       0.43      35.30
H      19.98      24.59      38.96
H      18.36       3.88      41.17
H      18.45       2.48      42.01
H      23.51      24.17      33.13
H      22.13      24.34      32.25
H      22.38       0.05      37.53
H      19.73       2.79      36.78
H      20.00      11.91       3.48
H      18.83      13.08       7.15
H      23.50      11.47       9.32
H      22.12      11.61      10.19
H      18.38      16.56       1.28
H      18.50      15.17       0.43
H      19.68      15.46       5.68
H      22.38      12.78       4.93
H      18.04      12.22      24.71
H      19.21      11.05      28.38
H      14.53      12.65      30.55
H      15.91      12.52      31.42
H      19.66       7.56      22.51
H      19.54       8.96      21.66
H      18.36       8.66      26.92
H      15.66      11.35      26.16
H       6.50       0.32      35.33
H       5.33      24.55      38.99
H       6.95       3.86      41.16
H       6.80       2.48      42.03
H       1.84      24.07      33.14
H       3.24      24.16      32.29
H       2.93       0.08      37.52
H       5.63       2.73      36.77
H       6.17      23.80      14.10
H       7.35      24.93      17.76
H       5.74      20.26      19.93
H       5.88      21.64      20.80
H      10.83       0.04      11.90
H       9.43      25.32      11.05
H       9.74      24.04      16.29
H       7.04      21.39      15.54
H      17.97      11.88      17.76
H      19.18      13.01      14.10
H      14.52      11.41      11.90
H      15.92      11.49      11.05
H      19.60      16.55      19.94
H      19.43      15.17      20.81
H      18.35      15.42      15.53
H      15.61      12.77      16.29
H      20.06      12.24      39.00
H      18.85      11.11      35.33
H      23.51      12.72      33.13
H      22.11      12.63      32.28
H      18.43       7.57      41.17
H      18.60       8.95      42.04
H      19.68       8.71      36.77
H      22.42      11.35      37.52
H       6.15       0.38      28.38
H       7.28      24.57      24.72
H       5.66       3.87      22.52
H       5.75       2.47      21.67
H      10.82      24.13      30.54
H       9.44      24.27      31.42
H       9.69       0.08      26.16
H       7.04       2.78      26.91
H       6.52      23.74       7.14
H       5.39      24.91       3.49
H       7.00      20.25       1.29
H       6.91      21.65       0.44
H       1.85      25.34       9.31
H       3.23      25.20      10.19
H       2.98      24.04       4.92
H       5.63      21.34       5.67
H       6.54      15.21      30.99
H       7.33      14.44      29.74
H       5.56      13.99      32.83
H       6.14       8.91       9.75
H       5.34       9.68       8.51
H       7.12      10.13      11.60
H      15.83      24.94      41.60
H      16.60       0.36      40.36
H      17.05      23.97       0.98
H      22.20      24.55      20.37
H      21.44      23.76      19.12
H      20.99       0.16      22.21
H      18.82       8.87      11.46
H      18.04       9.63      12.71
H      19.79      10.09       9.61
H      19.21      15.25      32.70
H      20.00      14.49      33.94
H      18.24      14.04      30.85
H       9.54      24.54       0.84
H       8.77      23.76       2.09
H       8.32       0.15      41.46
H       3.13      24.94      22.08
H       3.90       0.35      23.33
H       4.35      23.97      20.23
H      19.21       2.53       9.75
H      20.01       1.77       8.51
H      18.23       1.32      11.59
H      18.82      21.59      30.98
H      18.03      22.35      29.74
H      19.80      22.81      32.83
H       3.19      12.25      20.36
H       3.95      13.05      19.13
H       4.40      11.27      22.21
H       9.49      11.86      41.60
H       8.72      11.06      40.36
H       8.27      12.85       0.97
H       6.14      21.54      32.69
H       5.36      22.30      33.94
H       7.11      22.76      30.84
H       6.53       2.58      11.46
H       7.31       1.81      12.71
H       5.56       1.36       9.61
H      22.18      11.87      22.08
H      21.42      11.07      23.32
H      20.97      12.84      20.23
H      15.85      12.26       0.85
H      16.62      13.05       2.09
H      17.07      11.28      41.47
H       9.72       6.54      38.89
H       8.95       8.00      38.83
H       8.52       4.43      38.83
H       2.95      17.58      17.67
H       3.72      16.12      17.60
H       4.15      19.69      17.60
H      24.54       2.77       7.04
H      23.07       1.99       6.97
H       1.28       1.56       6.98
H      13.50      21.35      28.28
H      14.97      22.13      28.21
H      11.40      22.56      28.21
H       2.95       6.60      24.78
H       3.73       8.06      24.85
H       4.14       4.48      24.85
H       9.72      17.53       3.54
H       8.94      16.07       3.61
H       8.52      19.64       3.61
H      13.55       2.77      14.16
H      15.01       1.98      14.24
H      11.44       1.57      14.23
H      24.48      21.36      35.39
H      23.02      22.14      35.47
H       1.23      22.55      35.46
H      15.63      17.59       3.55
H      16.40      16.12       3.62
H      16.84      19.69       3.61
H      22.41       6.53      24.78
H      21.64       8.00      24.86
H      21.20       4.43      24.84
H      22.40      17.53      17.67
H      21.62      16.07      17.59
H      21.20      19.64      17.61
H      15.63       6.59      38.91
H      16.41       8.06      38.83
H      16.83       4.49      38.84
H      11.86      15.44      28.28
H      10.39      14.66      28.21
H      13.96      14.23      28.22
H       0.81       8.68       7.05
H       2.28       9.46       6.98
H      24.08       9.89       6.99
H       0.87      15.44      35.39
H       2.34      14.65      35.46
H      24.13      14.24      35.45
H      11.80       8.68      14.15
H      10.34       9.47      14.23
H      13.91       9.88      14.22
C       5.46      10.53      37.70
C       5.61      11.21      38.92
C       6.11      10.56      40.07
C       6.43       9.17      40.03
C       6.29       8.48      38.78
C       5.81       9.16      37.64
C       4.84      11.14      36.58
C       3.49      11.52      36.65
C       2.80      11.99      35.51
C       3.48      12.11      34.26
C       4.87      11.78      34.21
C       5.52      11.27      35.35
C       7.21      13.59      16.47
C       7.06      12.90      17.69
C       6.56      13.56      18.84
C       6.24      14.95      18.80
C       6.38      15.64      17.55
C       6.86      14.95      16.41
C       7.83      12.98      15.35
C       9.18      12.60      15.42
C       9.87      12.12      14.28
C       9.19      12.01      13.02
C       7.80      12.34      12.97
C       7.15      12.85      14.12
C      20.54      23.88       5.85
C      19.86      24.02       7.07
C      20.51      24.52       8.22
C      21.90      24.84       8.17
C      22.59      24.70       6.93
C      21.91      24.23       5.79
C      19.92      23.26       4.73
C      19.57      21.90       4.79
C      19.08      21.21       3.66
C      18.94      21.89       2.41
C      19.26      23.28       2.36
C      19.78      23.94       3.50
C      17.49       0.25      27.08
C      18.18       0.10      28.30
C      17.53      24.96      29.45
C      16.13      24.65      29.41
C      15.45      24.79      28.16
C      16.13      25.26      27.02
C      18.11       0.87      25.96
C      18.46       2.23      26.03
C      18.95       2.91      24.89
C      19.09       2.23      23.65
C      18.77       0.84      23.59
C      18.26       0.19      24.74
C       7.25      10.56      25.96
C       7.12      11.24      24.73
C       6.61      10.59      23.59
C       6.28       9.20      23.64
C       6.39       8.52      24.89
C       6.87       9.21      26.03
C       7.86      11.18      27.08
C       9.23      11.53      27.02
C       9.91      12.01      28.17
C       9.22      12.14      29.41
C       7.83      11.83      29.45
C       7.18      11.33      28.30
C       5.43      13.56       4.73
C       5.55      12.88       3.50
C       6.06      13.53       2.35
C       6.39      14.92       2.41
C       6.28      15.60       3.66
C       5.80      14.91       4.80
C       4.81      12.94       5.85
C       3.45      12.59       5.79
C       2.76      12.11       6.93
C       3.45      11.98       8.18
C       4.84      12.29       8.22
C       5.50      12.79       7.07
C      17.53      23.84      15.35
C      18.20      23.97      14.12
C      17.55      24.48      12.97
C      16.16      24.81      13.03
C      15.49      24.69      14.28
C      16.17      24.21      15.42
C      18.15      23.22      16.47
C      18.48      21.85      16.41
C      18.97      21.17      17.55
C      19.13      21.87      18.79
C      18.83      23.26      18.83
C      18.32      23.91      17.68
C      20.51       0.28      36.58
C      19.83       0.16      35.35
C      20.49      25.01      34.21
C      21.87      24.68      34.26
C      22.55      24.80      35.51
C      21.87      25.28      36.65
C      19.89       0.90      37.70
C      19.56       2.27      37.65
C      19.07       2.95      38.78
C      18.91       2.26      40.02
C      19.21       0.87      40.06
C      19.72       0.21      38.92
C      19.88      13.58       4.75
C      19.73      12.90       3.53
C      19.23      13.55       2.38
C      18.92      14.94       2.43
C      19.05      15.63       3.67
C      19.53      14.95       4.81
C      20.50      12.97       5.87
C      21.86      12.62       5.80
C      22.55      12.13       6.94
C      21.87      11.99       8.19
C      20.47      12.30       8.24
C      19.82      12.82       7.09
C      18.16      10.54      25.99
C      18.31      11.23      24.76
C      18.81      10.57      23.62
C      19.12       9.18      23.66
C      18.99       8.49      24.90
C      18.51       9.18      26.04
C      17.54      11.16      27.10
C      16.18      11.51      27.04
C      15.49      11.99      28.17
C      16.17      12.14      29.42
C      17.56      11.82      29.47
C      18.22      11.31      28.33
C       4.82       0.23      36.60
C       5.51       0.06      35.38
C       4.86      24.92      34.24
C       3.46      24.62      34.28
C       2.77      24.79      35.52
C       3.45      25.27      36.65
C       5.44       0.85      37.71
C       5.80       2.22      37.65
C       6.28       2.90      38.78
C       6.42       2.22      40.03
C       6.11       0.83      40.08
C       5.59       0.17      38.94
C       7.85      23.89      15.37
C       7.16      24.06      14.15
C       7.82      24.56      13.00
C       9.21      24.87      13.05
C       9.91      24.70      14.28
C       9.22      24.21      15.42
C       7.23      23.26      16.48
C       6.88      21.90      16.41
C       6.40      21.22      17.55
C       6.25      21.90      18.80
C       6.57      23.29      18.85
C       7.08      23.95      17.70
C      18.12      13.55      16.48
C      18.25      12.87      17.71
C      18.76      13.52      18.86
C      19.09      14.91      18.80
C      18.97      15.59      17.55
C      18.49      14.90      16.41
C      17.50      12.93      15.37
C      16.13      12.60      15.42
C      15.45      12.12      14.28
C      16.14      11.95      13.04
C      17.54      12.25      13.00
C      18.19      12.76      14.15
C      19.92      10.58      37.71
C      19.79      11.25      38.94
C      19.28      10.60      40.09
C      18.95       9.21      40.04
C      19.07       8.53      38.78
C      19.54       9.22      37.64
C      20.54      11.19      36.60
C      21.91      11.52      36.65
C      22.59      12.01      35.51
C      21.89      12.18      34.28
C      20.50      11.88      34.24
C      19.85      11.37      35.38
C       7.82       0.27      27.10
C       7.14       0.12      28.32
C       7.79      24.97      29.47
C       9.18      24.65      29.41
C       9.87      24.80      28.16
C       9.18      25.29      27.03
C       7.19       0.89      25.98
C       6.86       2.26      26.04
C       6.38       2.94      24.90
C       6.21       2.25      23.67
C       6.51       0.85      23.62
C       7.02       0.20      24.77
C       4.85      23.85       5.87
C       5.53      24.00       7.09
C       4.88      24.51       8.23
C       3.49      24.83       8.18
C       2.80      24.68       6.93
C       3.49      24.20       5.80
C       5.48      23.23       4.75
C       5.80      21.86       4.81
C       6.29      21.18       3.67
C       6.46      21.87       2.43
C       6.16      23.26       2.39
C       5.65      23.92       3.53
C       5.64      11.89      33.02
C       5.90      13.13      32.40
C       6.62      13.18      31.18
C       7.06      11.94      30.63
C       7.04      12.23      11.79
C       6.77      10.99      11.17
C       6.05      10.94       9.95
C       5.61      12.18       9.40
C      19.15      24.05       1.17
C      17.91      24.31       0.55
C      17.86      25.03      41.80
C      19.10       0.10      41.25
C      18.88       0.08      22.41
C      20.12      25.18      21.78
C      20.17      24.47      20.57
C      18.94      24.03      20.01
C      19.71      12.19       9.42
C      19.45      10.95      10.04
C      18.74      10.90      11.27
C      18.30      12.13      11.82
C      18.32      11.93      30.66
C      18.58      13.17      31.28
C      19.30      13.22      32.50
C      19.73      11.99      33.05
C       6.22       0.07      41.27
C       7.46      25.17      41.89
C       7.51      24.46       0.65
C       6.27      24.03       1.20
C       6.46      24.05      20.04
C       5.21      24.31      20.66
C       5.16      25.02      21.88
C       6.40       0.09      22.44
C      18.32      24.58      11.79
C      18.58       0.46      11.17
C      19.30       0.51       9.95
C      19.74      24.64       9.40
C      19.72      24.91      33.02
C      19.46      23.67      32.40
C      18.74      23.62      31.18
C      18.29      24.85      30.63
C       6.50      11.35      22.40
C       5.26      11.61      21.78
C       5.21      12.34      20.57
C       6.45      12.79      20.02
C       6.17      12.77       1.17
C       7.41      12.50       0.55
C       7.46      11.78      41.80
C       6.22      11.33      41.25
C       7.03      24.86      30.66
C       6.77      23.62      31.28
C       6.06      23.57      32.50
C       5.62      24.80      33.05
C       5.64      24.62       9.42
C       5.90       0.50      10.04
C       6.62       0.55      11.26
C       7.05      24.68      11.82
C      18.86      12.76      20.04
C      20.10      12.50      20.66
C      20.15      11.78      21.88
C      18.92      11.34      22.43
C      19.17      11.36      41.28
C      17.93      11.62      41.90
C      17.88      12.34       0.65
C      19.12      12.78       1.20
C       6.42       4.31      38.66
C       7.66       4.98      38.74
C       7.69       6.39      38.75
C       6.45       7.08      38.67
C       6.26      19.81      17.43
C       5.02      19.14      17.51
C       4.98      17.73      17.52
C       6.22      17.04      17.44
C       1.40      24.82       6.82
C       0.73       0.70       6.90
C      24.68       0.74       6.90
C      23.99      24.86       6.82
C      11.27      24.66      28.05
C      11.94      23.42      28.13
C      13.35      23.38      28.13
C      14.04      24.62      28.05
C       6.25       4.35      25.01
C       5.01       5.02      24.93
C       4.98       6.44      24.93
C       6.22       7.12      25.02
C       6.42      19.77       3.78
C       7.66      19.10       3.70
C       7.69      17.68       3.69
C       6.45      17.00       3.78
C      11.31      24.83      14.39
C      11.98       0.70      14.32
C      13.40       0.74      14.32
C      14.08      24.86      14.40
C       1.36      24.65      35.63
C       0.69      23.42      35.55
C      24.64      23.39      35.55
C      23.95      24.63      35.64
C      18.94      19.81       3.78
C      17.70      19.14       3.70
C      17.66      17.73       3.70
C      18.89      17.03       3.78
C      19.09       4.32      25.01
C      20.33       4.98      24.93
C      20.38       6.40      24.93
C      19.14       7.09      25.02
C      19.10      19.77      17.44
C      20.34      19.10      17.52
C      20.38      17.68      17.52
C      19.13      16.99      17.43
C      18.94       4.36      38.68
C      17.70       5.03      38.75
C      17.66       6.44      38.75
C      18.90       7.13      38.66
C      14.09      12.13      28.05
C      13.42      13.37      28.13
C      12.00      13.41      28.13
C      11.31      12.17      28.05
C      23.95      11.99       6.82
C      24.62      10.75       6.90
C       0.67      10.71       6.90
C       1.36      11.95       6.82
C      23.99      12.14      35.62
C      24.67      13.37      35.54
C       0.72      13.41      35.54
C       1.40      12.16      35.63
C      14.04      11.98      14.39
C      13.37      10.75      14.31
C      11.95      10.71      14.31
C      11.27      11.96      14.40
N       6.80       8.51      41.16
N       2.80      12.46      33.12
N       5.87      15.61      19.93
N       9.87      11.66      11.89
N      22.56      25.21       9.31
N      18.58      21.21       1.28
N      15.47      24.28      30.54
N      19.45       2.91      22.51
N       5.93       8.52      22.51
N       9.88      12.52      30.55
N       6.74      15.60       1.27
N       2.79      11.60       9.31
N      15.48      25.15      11.89
N      19.52      21.20      19.92
N      22.56      24.34      33.13
N      18.52       2.92      41.15
N      18.55      15.61       1.29
N      22.54      11.63       9.32
N      19.49       8.52      22.52
N      15.49      12.49      30.55
N       2.80      24.23      33.15
N       6.78       2.90      41.16
N       9.88      25.25      11.91
N       5.90      21.22      19.93
N      19.43      15.59      19.94
N      15.48      11.56      11.91
N      18.60       8.53      41.17
N      22.56      12.56      33.14
N       9.86      24.30      30.54
N       5.83       2.91      22.53
N       2.81      25.19       9.31
N       6.84      21.21       1.30
N       6.78      10.79      31.30
N       6.10      10.76      32.42
N       6.86      14.38      30.59
N       5.90      13.33      10.07
N       6.57      13.36      11.19
N       5.82       9.74       9.36
N      20.25      25.18      41.91
N      20.28      24.51       0.57
N      16.66      25.26      41.20
N      17.79      24.31      20.68
N      17.76      24.97      21.80
N      21.37      24.24      19.97
N      18.58      13.28      11.15
N      19.25      13.31      10.03
N      18.50       9.70      11.86
N      19.45      10.84      32.38
N      18.79      10.81      31.26
N      19.53      14.42      33.09
N       5.12      24.31       0.54
N       5.09      24.97      41.88
N       8.71      24.23       1.24
N       7.55      25.18      21.77
N       7.58      24.51      20.64
N       3.96      25.25      22.48
N      19.46      23.49      10.07
N      18.79      23.46      11.19
N      19.53       1.71       9.36
N      18.58       0.64      31.30
N      19.25       0.67      32.42
N      18.50      22.42      30.59
N       7.60      12.50      20.69
N       7.63      11.83      21.80
N       4.02      12.57      19.97
N       5.07      11.62      41.92
N       5.04      12.29       0.57
N       8.66      11.54      41.20
N       5.90       0.59      32.38
N       6.57       0.62      31.26
N       5.82      22.37      33.09
N       6.77      23.53      11.15
N       6.11      23.50      10.03
N       6.85       1.75      11.86
N      17.77      11.62      21.77
N      17.74      12.29      20.64
N      21.35      11.55      22.47
N      20.27      12.50       0.53
N      20.30      11.83      41.88
N      16.68      12.58       1.24
N       5.31       6.35      38.58
N       5.29       5.05      38.58
N       8.89       7.03      38.84
N       7.36      17.76      17.35
N       7.38      19.07      17.35
N       3.78      17.09      17.61
N      24.72      23.72       6.73
N       0.65      23.70       6.73
N      24.04       1.93       6.99
N      13.32       0.40      27.96
N      12.02       0.42      27.96
N      14.00      22.19      28.22
N       7.36       6.39      25.10
N       7.38       5.09      25.10
N       3.79       7.09      24.83
N       5.31      17.73       3.87
N       5.29      19.03       3.87
N       8.88      17.04       3.60
N      13.35      23.72      14.49
N      12.05      23.70      14.49
N      14.04       1.93      14.22
N      24.68       0.41      35.72
N       0.62       0.42      35.72
N      23.99      22.20      35.45
N      20.04      17.76       3.87
N      20.07      19.06       3.86
N      16.46      17.09       3.61
N      18.00       6.37      25.10
N      17.97       5.07      25.10
N      21.58       7.03      24.84
N      17.99      17.72      17.34
N      17.97      19.02      17.35
N      21.57      17.04      17.61
N      20.05       6.41      38.58
N      20.07       5.10      38.58
N      16.47       7.09      38.85
N      12.04      11.03      27.97
N      13.34      11.00      27.97
N      11.36      14.61      28.23
N       0.64      13.10       6.73
N      24.70      13.12       6.73
N       1.31       9.52       7.00
N       0.67      11.02      35.72
N      24.73      11.01      35.71
N       1.36      14.60      35.44
N      12.00      13.10      14.48
N      13.30      13.11      14.48
N      11.31       9.52      14.21
