23

Cd       8.16       8.09       2.82
Cd       3.07      11.55       4.98
Cd       5.56       5.51       3.61
C       5.67       9.85       4.08
C       4.21       8.42       4.67
C       9.90       5.58       4.08
C       8.45       4.14       4.67
C       2.97      11.46       8.21
C       1.51      10.01       7.65
C       5.76       5.71       0.26
C       7.22       7.16      -0.30
N       6.17       8.66       3.76
N       5.23       7.73       4.14
N       4.45       9.75       4.65
N       8.71       6.09       3.76
N       7.77       5.16       4.14
N       9.79       4.36       4.65
N       2.40      10.88       7.12
N       6.25       6.20       1.40
N       7.20       7.14       1.04
Cl       9.85       9.77       3.23
Cl       3.92       3.89       2.53
Cl       4.72       4.68       5.98
