27

Cd       9.15       9.54       2.92
O       8.98      10.31       0.75
O       8.92       8.62       5.02
Cd       9.26       8.50      -0.48
Cd       9.17      10.39       6.32
C       7.04       7.41       1.63
C      11.44       7.47       1.25
C      11.45      11.47       4.49
C       7.10      11.68       4.68
C       9.51      11.39       0.18
C       9.61       7.65       5.58
C       9.45       9.23       9.41
C       9.51      11.65       9.20
C      11.40      10.31       8.45
C       9.32       7.06      -3.61
C       7.21       6.96      -2.42
C       9.11       5.62      -1.66
N       9.89      10.36       8.54
N       8.71       6.97      -2.26
O       7.28       8.27       2.52
O      10.73       7.94       2.18
O      11.02      10.79       3.52
O       7.86      11.33       3.73
O       7.71       7.21       0.55
O      11.24       7.66      -0.01
O      10.99      11.47       5.69
O       7.31      11.48       5.93
