27

Cd       4.57      15.93      12.55
Cd       4.48      14.04      19.35
Cd       4.46      14.91      15.96
O       4.29      14.13      13.78
O       4.23      15.82      18.08
C       4.64      17.37       9.40
O       2.62      16.22      15.55
C       2.53      17.47      10.60
O       6.06      16.49      15.23
O       6.32      13.65      16.54
O       3.11      13.16      16.70
O       3.03      17.23      13.56
O       6.57      16.71      13.03
O       6.29      12.96      18.71
O       2.63      12.94      18.92
C       4.43      18.81      11.35
C       4.76      15.21      22.42
C       4.81      12.78      22.21
C       6.71      14.12      21.46
C       4.78      13.05      13.21
C       4.94      16.78      18.62
C       2.36      17.05      14.65
C       6.77      16.94      14.29
C       6.76      12.96      17.51
C       2.39      12.76      17.66
N       4.04      17.47      10.76
N       5.20      14.07      21.56
