16

H      29.65      20.06      14.65
O      28.66      18.37      13.17
O      26.39      18.46      13.06
C      27.51      23.62      16.78
C      27.51      22.39      15.93
C      27.53      18.88      13.46
H      25.40      20.35      14.20
C      27.53      20.09      14.33
H      29.64      22.12      16.08
H      25.38      22.41      15.63
C      28.72      21.72      15.66
C      26.31      21.89      15.41
O      28.65      24.07      17.16
O      26.37      24.13      17.06
C      28.73      20.58      14.87
C      26.32      20.75      14.61
