9

C      -3.34       6.83      21.56
Cu      -2.45       8.01      22.85
C      -3.63       8.84      24.14
N      -3.67       6.10      20.69
N      -4.31       9.21      25.04
C      -1.16       7.03      23.93
C      -1.54       9.37      21.81
N      -0.32       6.73      24.71
N      -1.17      10.21      21.06
