9

Cu      -2.48      -2.44      11.41
C      -3.64      -3.32      10.12
C      -1.66      -3.62      12.71
C      -3.44      -1.13      12.47
C      -1.10      -1.54      10.38
N      -3.78      -0.28      13.22
N      -0.27      -1.16       9.62
N      -4.37      -3.66       9.25
N      -1.28      -4.30      13.61
