110

Cu      12.35       3.78       3.84
Cu       4.47       4.60       5.77
Cu       7.73       0.87       5.46
Cu       4.88      -3.77       3.80
Cu      11.84      -4.61       5.72
Cu      15.09      -0.90       5.47
H      10.91      -6.90       4.04
H      11.48      -9.31       3.72
H      13.77      -9.09       7.38
H      13.11      -6.68       7.53
H      14.16     -12.87       2.73
H      13.19     -10.61       3.09
H      13.42     -11.37       7.35
H      14.32     -13.61       6.78
H       3.46       6.87       4.13
H       3.94       9.30       3.83
H       6.37       9.10       7.41
H       5.79       6.67       7.54
H       6.47      12.94       2.79
H       5.60      10.64       3.16
H       5.92      11.39       7.42
H       6.71      13.67       6.84
C      12.10       3.68       6.66
C      11.13       5.58       5.73
C      11.55      -7.43       4.74
C      11.88      -8.76       4.57
C      12.73      -9.41       5.49
C      13.13      -8.65       6.61
C      12.77      -7.31       6.71
C      13.97     -12.50       3.74
C      13.42     -11.24       3.94
C      13.23     -10.77       5.26
C      13.57     -11.65       6.30
C      14.09     -12.90       5.99
C       6.61      -0.25       2.97
C       8.12       1.48       2.61
C      12.67       4.24       1.03
C      14.67       4.30       2.22
C       9.62      -0.68       6.95
C       9.49       0.65       7.68
C       8.04       2.68       7.58
C       6.88       3.19       6.73
C       7.09       0.55       8.31
C       6.13      -0.44       7.60
C       8.90      -1.78       4.87
C       9.84      -2.99       4.92
C      10.56       0.03       4.76
C      10.58       1.54       4.55
C       9.61      -5.45       7.46
C      11.00      -3.88       8.46
C       6.70       4.95       3.90
C       4.76       4.28       2.83
C       2.20       5.42       7.46
C       3.66       4.02       8.59
C      14.06      -4.99       3.86
C      12.12      -4.31       2.78
C       4.70      -3.66       6.61
C       3.67      -5.55       5.73
C       4.11       7.41       4.82
C       4.39       8.76       4.66
C       5.25       9.41       5.57
C       5.72       8.65       6.66
C       5.41       7.30       6.75
C       6.33      12.56       3.80
C       5.83      11.28       4.02
C       5.69      10.79       5.33
C       6.03      11.68       6.37
C       6.49      12.95       6.05
C      14.06       0.29       2.97
C      15.44      -1.54       2.62
C       5.22      -4.22       0.98
C       7.21      -4.28       2.18
C       2.20       0.64       6.99
C      16.85      -0.70       7.69
C      15.41      -2.73       7.58
C      14.25      -3.25       6.73
C      14.44      -0.60       8.30
C      13.50       0.40       7.60
C       1.51       1.79       4.93
C       2.46       2.99       4.98
C       3.15      -0.03       4.80
C       3.13      -1.54       4.53
N      11.91       4.48       5.57
N      12.01      -6.69       5.78
N      14.32     -13.34       4.74
N       7.39       0.73       3.48
N      13.31       4.19       2.24
N       8.13       1.21       7.47
N       9.38      -0.52       5.48
N      10.71      -4.67       7.40
N       5.39       4.63       3.98
N       3.34       4.69       7.47
N      12.75      -4.65       3.93
N       4.46      -4.46       5.53
N       4.64       6.67       5.83
N       6.67      13.41       4.80
N      14.77      -0.74       3.48
N       5.85      -4.17       2.19
N      15.49      -1.25       7.46
N       1.97       0.51       5.52
O       6.56       2.48       5.72
O       6.32       4.29       7.04
O       6.32      -0.67       6.35
O      11.01      -2.80       5.42
O      11.56       1.93       3.81
O      13.92      -2.54       5.72
O      13.70      -4.34       7.03
O      13.66       0.60       6.34
O       3.63       2.80       5.48
O       4.08      -1.92       3.75
