14

Cu       8.24       1.02      40.01
O       8.27      -2.03      39.42
O       9.39      -0.12      38.88
O       9.44       0.70      41.52
Cu       7.03      -1.02      40.59
C       9.20      -1.39      38.82
C       9.28      -0.37      42.21
O       8.32      -1.21      42.07
O       7.00       2.04      41.19
C       6.07       1.39      41.79
O       5.83      -0.70      39.08
C       5.99       0.37      38.39
O       5.88       0.12      41.72
O       6.95       1.21      38.53
