308

C      12.01      24.93      31.35
C       0.90      23.92      31.03
C       1.65      23.75       0.21
C       0.70      24.73       0.60
C       0.65      25.10       1.98
C       1.52      24.55       2.96
C       2.45      23.57       2.52
C       2.51      23.18       1.18
C       0.99      23.44      29.70
C       0.15      23.93      28.69
C      11.23      24.93      28.96
C      11.18      25.43      30.30
C      10.42      24.95      33.17
C       9.44       0.06       0.23
C      11.15       1.92      33.20
C       0.11       0.99      32.85
C      11.46       3.30       0.05
C       0.72       3.76      33.07
C       1.77       2.88      32.74
C       1.43       1.50      32.61
C      10.01      23.58      33.15
C       8.67      23.17       0.17
C       7.74      24.19       0.48
C       8.11      25.54       0.51
C      11.84      25.37      32.80
C       9.75       1.51       0.26
C       1.79      23.30      32.05
C       3.08       3.36      32.54
C      10.38      25.39      27.94
C       8.28      21.82       0.16
C       1.48      24.97       4.31
C      11.45      13.17      31.34
C      10.49      14.17      31.01
C       9.75      14.33       0.19
C      10.72      13.38       0.59
C      10.78      13.02       1.97
C       9.90      13.57       2.96
C       8.96      14.52       2.51
C       8.88      14.90       1.16
C      10.38      14.63      29.68
C      11.24      14.15      28.68
C       0.17      13.18      28.95
C       0.24      12.68      30.28
C       0.99      13.16      33.15
C       1.99      12.19       0.20
C       0.28      10.32      33.20
C      11.32      11.24      32.84
C      12.01       8.94       0.07
C      10.70       8.48      33.11
C       9.65       9.36      32.76
C      10.00      10.74      32.61
C       1.39      14.53      33.13
C       2.72      14.96       0.12
C       3.68      13.96       0.41
C       3.31      12.60       0.45
C      11.63      12.73      32.79
C       1.68      10.74       0.25
C       9.59      14.77      32.03
C       8.33       8.91      32.60
C       1.04      12.73      27.92
C       3.06      16.32       0.11
C       9.95      13.17       4.30
C       5.99      13.26      17.72
C       6.93      14.27      18.05
C       7.68      14.44      15.63
C       6.74      13.47      15.24
C       6.70      13.09      13.86
C       7.58      13.64      12.88
C       8.51      14.61      13.33
C       8.55      15.01      14.67
C       7.02      14.73      19.38
C       6.19      14.23      20.39
C       5.22      13.24      20.11
C       5.16      12.75      18.77
C       4.41      13.24      15.90
C       3.43      12.26      15.59
C       5.13      10.40      15.86
C       6.14      11.33      16.22
C       5.44       9.02      15.77
C       6.75       8.56      15.99
C       7.80       9.44      16.32
C       7.46      10.82      16.46
C       4.00      14.61      15.91
C       2.66      15.02      15.65
C       1.73      14.01      15.33
C       2.10      12.66      15.30
C       5.82      12.82      16.27
C       3.74      10.81      15.56
C       7.81      14.90      17.04
C       9.11       8.96      16.51
C       4.39      12.76      21.15
C       2.27      16.37      15.65
C       7.60      13.18      11.55
C       5.42      25.01      17.74
C       4.47      24.02      18.07
C       3.72      23.84      15.65
C       4.68      24.80      15.25
C       4.73      25.16      13.86
C       3.84      24.62      12.89
C       2.90      23.66      13.34
C       2.85      23.27      14.69
C       4.35      23.57      19.40
C       5.20      24.06      20.41
C       6.19      25.03      20.13
C       6.26      25.50      18.79
C       7.01      25.02      15.92
C       8.00       0.12      15.62
C       6.30       1.99      15.86
C       5.29       1.06      16.23
C       5.98       3.36      15.75
C       4.67       3.83      15.96
C       3.63       2.94      16.31
C       3.97       1.57      16.46
C       7.41      23.64      15.94
C       8.74      23.21      15.70
C       9.69      24.21      15.41
C       9.33      25.57      15.37
C       5.60      25.44      16.28
C       7.70       1.57      15.58
C       3.57      23.40      17.06
C       2.30       3.40      16.48
C       7.03      25.50      21.17
C       9.08      21.85      15.72
C       3.83      25.05      11.55
C       4.51       5.36      32.87
C       4.41       6.66       0.15
C       5.53       7.53       0.17
C       6.75       7.07      32.85
C       5.41       8.87       0.80
C      10.54       6.96      16.20
C      10.44       5.65      15.68
C      11.55       4.78      15.67
C       0.73       5.24      16.23
C      11.43       3.44      15.04
C       6.37      20.34      33.08
C       5.09      20.32      32.48
C       4.30      19.14      32.48
C       4.82      17.99      33.14
C       3.00      19.14      31.77
C       0.36      17.84      15.99
C      11.13      17.86      16.58
C      10.33      19.03      16.58
C      10.84      20.19      15.93
C       9.02      19.03      17.28
C       3.07      24.51       9.29
C       2.98      25.76       8.62
C       2.65      25.82       7.24
C       2.39      24.60       6.55
C       2.63       1.25       6.53
C       8.38      13.69       9.28
C       8.42      12.44       8.62
C       8.75      12.36       7.24
C       9.06      13.57       6.55
C       8.73      11.05       6.54
C       8.05      24.73      23.29
C       8.36      23.50      23.90
C       9.04      23.46      25.15
C       9.38      24.68      25.78
C       9.38      22.15      25.77
C       3.35      13.48      23.28
C       3.00      14.70      23.90
C       2.32      14.71      25.14
C       2.02      13.47      25.77
C       1.94      16.01      25.76
H       6.77      23.95       0.70
H       7.40       0.37       0.74
H      10.73       3.98       0.30
H       0.88       4.77      33.16
H       2.17       0.84      32.37
H      10.70      22.87      32.92
H      12.01      25.80       2.27
H       3.10      23.14       3.18
H       3.20      22.48       0.90
H      10.48       0.27      30.52
H       1.67      22.71      29.46
H       0.25      23.54      27.75
H       9.10       2.02      32.79
H       9.51       1.88       1.26
H       2.82      23.47      31.73
H       1.61      22.22      32.04
H       8.98      21.12       0.11
H       3.81       2.71      32.40
H       9.99       0.43      28.00
H       0.86      25.70       4.56
H       4.65      14.21       0.61
H       4.04      11.91       0.67
H       0.69       8.27       0.33
H      10.52       7.48      33.22
H       9.26      11.40      32.37
H       0.68      15.24      32.91
H      11.47      12.33       2.27
H       8.30      14.95       3.16
H       8.18      15.59       0.88
H       0.95      11.98      30.51
H       9.70      15.35      29.44
H      11.12      14.53      27.73
H       2.33      10.23      32.77
H       1.94      10.38       1.25
H       8.56      14.57      31.72
H       9.74      15.86      32.00
H       2.33      16.98       0.24
H       7.65       9.55      32.26
H       1.45      11.83      27.99
H      10.56      12.42       4.56
H       0.76      14.24      15.11
H       1.39      11.95      15.07
H       4.72       8.35      15.52
H       6.91       7.55      15.90
H       8.20      11.48      16.70
H       4.69      15.33      16.15
H       6.04      12.37      13.56
H       9.18      15.03      12.68
H       9.24      15.72      14.95
H       4.47      12.04      18.55
H       7.70      15.46      19.63
H       6.30      14.60      21.34
H       3.08      10.31      16.27
H       3.50      10.45      14.56
H       8.85      14.73      17.35
H       7.62      15.98      17.05
H       2.97      17.07      15.74
H       9.84       9.60      16.73
H       3.82      11.96      20.97
H       6.99      12.45      11.29
H      10.67      23.96      15.21
H      10.05       0.39      15.15
H       6.71       4.04      15.49
H       4.49       4.83      15.85
H       3.23       0.90      16.71
H       6.70      22.94      16.17
H       5.41      25.87      13.57
H       2.23      23.25      12.69
H       2.14      22.58      14.97
H       6.97       0.34      18.56
H       3.66      22.85      19.65
H       5.07      23.69      21.36
H       8.35       2.07      16.29
H       7.95       1.92      14.57
H       2.54      23.60      17.36
H       3.73      22.32      17.08
H       8.35      21.19      15.59
H       1.63       2.76      16.82
H       7.65       0.38      20.97
H       4.44      25.80      11.29
H       3.52       6.97       0.55
H       4.45       9.01       1.30
H       5.51       9.65       0.05
H       6.19       9.00       1.55
H       9.54       5.34      15.29
H      10.47       3.30      14.54
H      11.53       2.66      15.80
H       0.17       3.31      14.29
H       4.75      21.17      32.03
H       2.86      20.04      31.16
H       2.94      18.29      31.10
H       2.19      19.10      32.49
H      10.78      17.01      17.03
H       8.88      18.13      17.89
H       8.96      19.88      17.95
H       8.21      19.06      16.56
H       3.17       0.75       9.14
H       2.94       2.08       7.18
H       1.61       1.47       6.19
H       3.29       1.22       5.67
H       8.21      11.59       9.15
H       8.39      10.24       7.19
H       9.73      10.80       6.19
H       8.05      11.10       5.68
H       8.10      22.63      23.44
H       9.04      21.30      25.17
H      10.46      22.07      25.89
H       8.90      22.08      26.75
H       3.23      15.58      23.43
H       2.25      16.87      25.17
H       0.85      16.05      25.89
H       2.41      16.09      26.75
N       6.77       5.79      32.39
N       5.72       4.98      32.38
N       3.42       4.58      32.88
N       7.93       7.71      32.88
N       0.75       6.52      16.69
N      11.75       7.33      16.69
N       9.45       7.74      16.18
N       1.91       4.60      16.20
N       6.07      18.09       0.43
N       6.80      19.19       0.41
N       7.06      21.48      33.07
N       4.26      16.77      33.19
N       0.05      20.09      15.39
N       0.78      19.00      15.41
N       1.05      16.71      15.99
N      10.28      21.41      15.87
N       2.51      23.45       7.27
N       2.81      23.41       8.55
N       3.34      24.32      10.58
N       2.19      24.42       5.24
N       8.98      14.72       7.26
N       8.68      14.78       8.53
N       8.12      13.90      10.58
N       9.24      13.73       5.23
N       9.04      25.84      25.12
N       8.42      25.86      23.96
N       7.38      24.69      22.13
N      10.09      24.66      26.92
N       2.39      12.34      25.11
N       3.02      12.34      23.95
N       4.02      13.55      22.12
N       1.32      13.48      26.91
