186

C       0.34       0.65      45.51
C       1.30       1.70      45.69
C       1.72       2.50      44.59
C       1.17       2.23      43.32
C       0.21       1.22      43.11
C      -0.23       0.44      44.22
C       1.82       1.90       0.97
C       6.46      12.72      44.07
C       7.62      13.10       0.59
C       0.50       0.04       1.88
C       7.79      12.50       2.97
C       6.85      11.46       2.75
C       6.29      11.21       1.48
C       6.67      12.06       0.40
C       1.42       1.10       2.04
C       6.09      11.90      45.14
C      -0.25       0.98      41.70
C       2.72       3.61      44.70
C      -7.18      12.77       4.40
C       5.30      10.09       1.37
C      -7.24      12.70      14.83
C       8.52      11.35      15.01
C       9.01      10.59      13.91
C      -6.29      11.20      12.64
C      -6.68      12.53      12.43
C       0.53       0.01      13.53
C       8.44      10.80      16.31
C       0.15       1.37      13.39
C      15.24       0.17      15.93
C       7.49      12.87      17.22
C      14.63       0.33      18.32
C      14.21       1.66      18.09
C      -1.07       2.27      16.82
C      -0.53       1.52      15.74
C       7.95      11.54      17.38
C      -0.38       2.10      14.46
C      -6.66      13.05      11.02
C       9.47       9.16      14.02
C       7.02      13.16      19.74
C      -1.55       3.69      16.71
C       6.99      13.24      30.17
C      13.27       0.27      30.35
C      12.37       0.23      29.25
C       5.20      13.17      27.98
C       6.56      12.85      27.77
C       7.45      12.86      28.87
C      12.84       0.62      31.65
C      -6.53      12.51      28.73
C       0.23       0.04      31.27
C      15.10       0.40      32.56
C       0.67       0.48      33.66
C       2.04       0.19      33.43
C      -5.13      13.11      32.16
C      -6.05      13.02      31.08
C      13.73       0.67      32.72
C      -5.63      12.60      29.80
C       7.00      12.57      26.36
C      10.90       0.55      29.36
C       0.26       0.66      35.08
C      -3.67      12.81      32.05
C       6.32      12.91      37.75
C       6.37      12.95      39.16
C       7.59      12.69      39.84
C      -6.63      12.28      39.08
C      -6.70      12.20      37.68
C       7.46      12.55      37.01
C       0.39       1.39       7.07
C       0.39       1.33       8.47
C      14.90       0.41       9.15
C       6.31      12.92       8.40
C       6.28      13.02       7.00
C      14.84       0.58       6.32
C      -6.62      12.30      22.41
C      -6.68      12.33      23.82
C       0.61       0.22      24.49
C       0.40       1.40      23.74
C       0.50       1.38      22.34
C       0.79       0.18      21.66
C       4.51       7.03       1.31
C       3.61       5.99       1.03
C       3.12       5.79      45.75
C       3.53       6.68      44.72
C       4.43       7.73      45.00
C       4.92       7.92       0.29
C      11.54       5.90      16.65
C      11.08       7.20      16.37
C      -4.18       7.73      15.06
C      -3.62       6.92      14.04
C      -3.16       5.62      14.32
C      12.10       5.10      15.63
C       7.05       0.38      31.99
C       8.40       0.12      31.71
C       1.14      13.08      30.40
C       0.17      13.00      29.38
C      -1.19      13.25      29.66
C       6.07       0.29      30.97
H       1.47       2.80      42.53
H       6.56      10.89       3.54
H       1.85       1.32       2.95
H       2.50       2.63       1.16
H       5.38      11.19      44.95
H       5.98      12.56      43.18
H      14.01       1.18      41.67
H       0.22       1.68      41.01
H       3.01       3.99      43.72
H       3.63       3.21      45.16
H      -6.14      13.08       4.50
H       8.07      11.85       4.98
H       4.37      10.48       0.94
H       5.03       9.69       2.35
H      -5.95      10.65      11.85
H      13.86       2.20      18.88
H       7.92      11.07      18.29
H       8.73       9.84      16.50
H      -0.64       3.07      14.27
H       0.25       1.86      12.50
H       1.72       0.60      10.99
H      -6.29      12.29      10.32
H       9.65       8.72      13.04
H       8.67       8.57      14.48
H       6.76      12.11      19.85
H      13.93       0.41      20.33
H      -0.74       4.30      16.28
H      -1.76       4.12      17.69
H       4.56      13.16      27.18
H       2.68       0.22      34.22
H      13.33       0.92      33.63
H      11.86       0.84      31.84
H      -4.66      12.35      29.61
H      -6.15      12.18      27.84
H       7.36      11.54      26.32
H       6.15      12.63      25.66
H      10.43       0.61      28.38
H      10.80       1.53      29.82
H      -0.53       1.41      35.18
H       1.10       1.05      35.67
H      -3.54      11.82      31.62
H      -3.19      12.79      33.03
H      -5.74      12.08      39.54
H       5.54      13.24      39.68
H       5.45      13.18      37.28
H      -5.85      11.96      37.15
H      -6.75      12.56      41.59
H       6.60      12.33      35.19
H       5.69      12.25       8.86
H       1.05       1.90       9.00
H       1.05       2.01       6.59
H       5.65      12.41       6.47
H       6.62      12.89      10.91
H      -0.26       1.44       4.51
H       0.12       2.27      24.20
H      -6.51      11.46      24.34
H      -6.42      11.41      21.93
H       0.29       2.23      21.81
H       0.22       1.15      26.25
H      -6.26      12.83      19.85
H       3.18       6.57      43.77
H       3.32       5.36       1.78
H       4.86       7.15       2.26
H       4.71       8.36      44.25
H       1.35       5.13      45.09
H       6.68       8.60       0.93
H      -3.54       7.29      13.09
H      10.68       7.77      17.13
H      11.46       5.54      17.60
H      -2.76       5.06      13.57
H      -3.87       9.59      14.40
H      11.81       3.23      16.27
H       0.45      12.75      28.43
H       9.09       0.19      32.47
H       6.77       0.63      32.94
H      -1.88      13.18      28.91
H       2.60      11.88      29.74
H       4.60       1.48      31.61
N       7.67      12.87      41.24
N       7.50      12.63      35.60
N      15.01       0.24      10.56
N      14.89       0.51       4.92
N       0.41       0.20      25.90
N       0.71       0.17      20.26
N       2.20       4.74      45.51
N       5.82       8.99       0.52
N      -4.63       9.05      14.83
N      12.57       3.79      15.86
N       2.51      12.81      30.17
N       4.70       0.54      31.20
