18

O       3.04       9.77       7.14
O       6.66      12.26       3.69
H       3.21      12.29       6.77
H       6.49       9.74       4.07
H       3.38       8.88       7.41
H       6.32      13.15       3.42
C       4.86       8.19       5.45
C       4.84      13.85       5.38
C       3.93      10.35       6.26
C       5.77      11.68       4.58
C       3.91      11.73       6.16
C       5.79      10.30       4.67
C       4.84      12.40       5.35
C       4.86       9.63       5.48
O       6.01       7.57       5.42
O       3.69      14.46       5.42
O       3.72       7.57       5.42
O       5.98      14.46       5.42
