204

Co       6.80       9.40       0.00
Co      11.99       9.40       0.00
Co       0.00       6.80       9.40
Co       0.00      11.99       9.40
Co       9.40       0.00       6.80
Co       9.40       0.00      11.99
Co       9.40       6.80       0.00
Co       9.40      11.99       0.00
Co       6.80       0.00       9.40
Co      11.99       0.00       9.40
Co       0.00       9.40      11.99
Co       0.00       9.40       6.80
H       4.45       7.29       4.45
H      14.35      11.51       4.45
H      14.35       7.29      14.35
H       4.45      11.51      14.35
H       4.45       4.45       7.29
H       4.45      14.35      11.51
H      14.35      14.35       7.29
H      14.35       4.45      11.51
H       7.29       4.45       4.45
H      11.51       4.45      14.35
H       7.29      14.35      14.35
H      11.51      14.35       4.45
H       7.29       4.45      14.35
H      11.51      14.35      14.35
H       7.29      14.35       4.45
H      11.51       4.45       4.45
H       4.45       4.45      11.51
H      14.35       4.45       7.29
H      14.35      14.35      11.51
H       4.45      14.35       7.29
H       4.45       7.29      14.35
H       4.45      11.51       4.45
H      14.35       7.29       4.45
H      14.35      11.51      14.35
C       6.58       6.58       3.08
C       5.98       5.98       4.27
C      12.22      12.22       3.08
C      12.82      12.82       4.27
C      12.22       6.58      15.71
C      12.82       5.98      14.52
C       6.58      12.22      15.71
C       5.98      12.82      14.52
C       3.08       6.58       6.58
C       4.27       5.98       5.98
C       3.08      12.22      12.22
C       4.27      12.82      12.82
C      15.71      12.22       6.58
C      14.52      12.82       5.98
C      15.71       6.58      12.22
C      14.52       5.98      12.82
C       6.58       3.08       6.58
C       5.98       4.27       5.98
C      12.22       3.08      12.22
C      12.82       4.27      12.82
C       6.58      15.71      12.22
C       5.98      14.52      12.82
C      12.22      15.71       6.58
C      12.82      14.52       5.98
C       6.58       6.58      15.71
C       5.98       5.98      14.52
C      12.22      12.22      15.71
C      12.82      12.82      14.52
C       6.58      12.22       3.08
C       5.98      12.82       4.27
C      12.22       6.58       3.08
C      12.82       5.98       4.27
C       6.58       3.08      12.22
C       5.98       4.27      12.82
C      12.22       3.08       6.58
C      12.82       4.27       5.98
C      12.22      15.71      12.22
C      12.82      14.52      12.82
C       6.58      15.71       6.58
C       5.98      14.52       5.98
C       3.08       6.58      12.22
C       4.27       5.98      12.82
C       3.08      12.22       6.58
C       4.27      12.82       5.98
C      15.71       6.58       6.58
C      14.52       5.98       5.98
C      15.71      12.22      12.22
C      14.52      12.82      12.82
C       4.84       6.54       4.84
C      13.96      12.26       4.84
C      13.96       6.54      13.96
C       4.84      12.26      13.96
C       4.84       4.84       6.54
C       4.84      13.96      12.26
C      13.96      13.96       6.54
C      13.96       4.84      12.26
C       6.54       4.84       4.84
C      12.26       4.84      13.96
C       6.54      13.96      13.96
C      12.26      13.96       4.84
C       6.54       4.84      13.96
C      12.26      13.96      13.96
C       6.54      13.96       4.84
C      12.26       4.84       4.84
C       4.84       4.84      12.26
C      13.96       4.84       6.54
C      13.96      13.96      12.26
C       4.84      13.96       6.54
C       4.84       6.54      13.96
C       4.84      12.26       4.84
C      13.96       6.54       4.84
C      13.96      12.26      13.96
N       6.95       7.87       1.46
N       6.11       7.67       2.48
N      11.85      10.93       1.46
N      12.69      11.12       2.48
N      11.85       7.87      17.34
N      12.69       7.67      16.32
N       6.95      10.93      17.34
N       6.11      11.12      16.32
N       1.46       6.95       7.87
N       2.48       6.11       7.67
N       1.46      11.85      10.93
N       2.48      12.69      11.12
N      17.34      11.85       7.87
N      16.32      12.69       7.67
N      17.34       6.95      10.93
N      16.32       6.11      11.12
N       7.87       1.46       6.95
N       7.67       2.48       6.11
N      10.93       1.46      11.85
N      11.12       2.48      12.69
N       7.87      17.34      11.85
N       7.67      16.32      12.69
N      10.93      17.34       6.95
N      11.12      16.32       6.11
N       7.87       6.95      17.34
N       7.67       6.11      16.32
N      10.93      11.85      17.34
N      11.12      12.69      16.32
N       7.87      11.85       1.46
N       7.67      12.69       2.48
N      10.93       6.95       1.46
N      11.12       6.11       2.48
N       6.95       1.46      10.93
N       6.11       2.48      11.12
N      11.85       1.46       7.87
N      12.69       2.48       7.67
N      11.85      17.34      10.93
N      12.69      16.32      11.12
N       6.95      17.34       7.87
N       6.11      16.32       7.67
N       1.46       7.87      11.85
N       2.48       7.67      12.69
N       1.46      10.93       6.95
N       2.48      11.12       6.11
N      17.34       7.87       6.95
N      16.32       7.67       6.11
N      17.34      10.93      11.85
N      16.32      11.12      12.69
N      11.85      10.93      17.34
N      12.69      11.12      16.32
N       6.95       7.87      17.34
N       6.11       7.67      16.32
N       6.95      10.93       1.46
N       6.11      11.12       2.48
N      11.85       7.87       1.46
N      12.69       7.67       2.48
N      17.34      11.85      10.93
N      16.32      12.69      11.12
N      17.34       6.95       7.87
N      16.32       6.11       7.67
N       1.46       6.95      10.93
N       2.48       6.11      11.12
N       1.46      11.85       7.87
N       2.48      12.69       7.67
N      10.93      17.34      11.85
N      11.12      16.32      12.69
N       7.87      17.34       6.95
N       7.67      16.32       6.11
N      10.93       1.46       6.95
N      11.12       2.48       6.11
N       7.87       1.46      11.85
N       7.67       2.48      12.69
N      10.93      11.85       1.46
N      11.12      12.69       2.48
N       7.87       6.95       1.46
N       7.67       6.11       2.48
N      10.93       6.95      17.34
N      11.12       6.11      16.32
N       7.87      11.85      17.34
N       7.67      12.69      16.32
N      11.85      17.34       7.87
N      12.69      16.32       7.67
N       6.95      17.34      10.93
N       6.11      16.32      11.12
N       6.95       1.46       7.87
N       6.11       2.48       7.67
N      11.85       1.46      10.93
N      12.69       2.48      11.12
N      17.34      10.93       6.95
N      16.32      11.12       6.11
N      17.34       7.87      11.85
N      16.32       7.67      12.69
N       1.46      10.93      11.85
N       2.48      11.12      12.69
N       1.46       7.87       6.95
N       2.48       7.67       6.11
