28

C       5.69       1.44      34.35
C       3.32       1.01      22.16
O       3.81       0.11      21.34
O       4.75       2.09      35.01
O       6.96       1.63      34.65
O       2.39       1.86      21.76
C       5.35       0.84      33.04
C       6.36       0.28      32.24
C       6.15       0.10      30.87
C       4.92       0.46      30.30
C       3.86       0.86      31.13
C       4.07       1.02      32.50
C       4.79       0.57      28.88
C       4.63       0.69      27.70
C       4.39       0.86      26.29
C       3.40       1.75      25.86
C       3.09       1.84      24.51
C       3.76       1.04      23.57
C       4.80       0.19      24.00
C       5.11       0.10      25.36
H       5.35      -0.42      23.29
H       7.34       0.06      32.66
H       6.96      -0.25      30.24
H       2.89       1.10      30.70
H       3.25       1.38      33.12
H       2.85       2.35      26.58
H       2.30       2.51      24.19
H       5.89      -0.57      25.69
