28

O      10.22       4.04      65.46
O      10.88       3.05      67.37
C      10.41       5.63      55.23
C      10.92       5.24      56.56
C      12.17       4.61      56.69
C      12.53       3.97      57.89
C      11.65       4.00      58.98
C      10.46       4.73      58.89
C      10.09       5.34      57.69
C      11.98       3.30      60.20
C      12.18       2.74      61.25
C      12.32       2.16      62.56
C      11.34       1.28      63.03
C      11.04       1.25      64.40
O       9.15       5.97      55.08
O      11.22       5.67      54.19
H      13.46       3.33      65.53
H      14.01       3.38      63.13
H      13.47       3.44      57.95
H      12.86       4.57      55.85
H       9.79       4.77      59.74
H       9.13       5.84      57.63
H      10.72       0.73      62.34
H      10.19       0.68      64.75
C      10.78       3.04      66.06
C      12.88       2.72      64.85
C      13.19       2.77      63.48
C      11.66       2.18      65.26
