28

C       6.29       3.66      51.65
H       4.16       1.98      51.91
H       3.12       0.82      50.00
H       4.87       3.68      47.31
H       5.93       4.82      49.21
H       2.46      -0.25      44.45
C       5.22       3.41      50.68
C       4.31       2.37      50.91
C       3.71       1.72      49.83
O       6.64       4.90      51.95
C       4.69       3.32      48.32
C       5.30       3.97      49.40
C       4.01       2.12      48.52
C       4.01       1.14      47.47
C       4.08       0.39      46.54
C       4.37      -0.48      45.44
C       3.48      -0.61      44.36
H       6.36      -0.91      46.16
H       3.26      -1.14      42.29
H       7.14      -1.87      44.04
C       5.67      -0.99      45.33
C       6.12      -1.51      44.12
C       5.28      -1.50      42.99
C       3.93      -1.11      43.14
C       5.85      -1.75      41.65
O       6.71       2.65      52.39
O       7.15      -1.91      41.57
O       5.06      -2.19      40.69
