10

H       3.37       5.42       3.47
O       2.43       2.32       2.97
C       2.97       4.56       2.94
C       2.74       4.69       1.48
C       3.04       3.36       3.53
H       3.54       5.08       0.86
O       0.57       3.94       1.69
O       1.48       4.33      -0.41
O       3.77       3.21       4.61
C       1.56       4.38       0.92
