10

O       4.61       3.95      37.32
C       4.62       4.81      39.44
O       5.95       5.75      37.83
H       3.98       4.00      39.76
C       5.13       4.79      38.20
O       4.02       7.44      38.58
O       3.49       8.00      40.70
C       4.03       7.16      39.85
H       4.79       5.92      41.35
C       4.63       6.04      40.28
