28

C       5.97       0.67      39.95
O       1.06       2.94      51.22
C       0.09       2.66      50.36
H       6.83       2.04      42.16
H       5.41       2.91      43.98
H       1.89       2.05      41.65
H       3.29       1.13      39.86
H       0.21       1.10      46.00
H      -0.63       1.00      48.32
H       2.18       4.83      46.87
C       5.17       1.49      40.89
C       5.76       2.05      42.03
C       4.95       2.56      43.06
C       3.56       2.52      42.94
C       2.97       2.06      41.76
C       3.77       1.54      40.74
C       2.73       2.69      44.11
C       2.04       2.84      45.08
C       1.27       2.97      46.28
C       0.43       1.91      46.68
C      -0.04       1.85      48.00
C       0.34       2.84      48.92
C       1.10       3.93      48.49
C       1.54       4.01      47.17
O       5.36       0.09      38.94
O       7.29       0.61      40.07
H       1.42       4.69      49.20
O      -1.07       2.14      50.77
