28

C      11.04      10.35       5.90
O      11.01      11.29       4.98
C      13.89      11.97      17.93
O      13.16      11.47      18.93
O      10.19       9.37       5.81
O      15.07      12.56      18.15
C      13.29      12.08      16.58
C      12.40      11.10      16.13
C      11.99      11.08      14.79
H      12.07      10.31      16.80
C      13.29      13.08      14.37
C      13.70      13.10      15.71
C      12.48      12.04      13.90
C      12.29      11.86      12.49
C      12.11      11.67      11.31
C      11.92      11.34       9.92
C      11.65      10.01       9.57
C      11.55       9.65       8.23
C      12.04      11.94       7.57
C      12.14      12.30       8.92
C      11.65      10.63       7.22
H      11.35      10.28      14.44
H      13.67      13.83      13.68
H      14.36      13.89      16.05
H      11.53       9.26      10.34
H      11.32       8.62       7.97
H      12.19      12.69       6.81
H      12.39      13.32       9.19
