28

C       0.92       1.68      54.11
H       3.63      -4.38      59.89
H       0.86      -1.91      62.07
H      -0.15      -1.87      56.88
H      -0.53      -0.48      54.89
C       3.19      -4.06      60.83
H       3.36       0.42      57.84
H       3.03       1.79      55.82
C       2.22      -3.05      60.84
C       1.62      -2.68      62.05
C       2.00      -2.26      59.67
C       0.54      -1.07      56.65
C       0.34      -0.29      55.52
C       1.22       0.77      55.22
C       2.32       1.00      56.05
C       2.52       0.22      57.19
C       1.82      -1.61      58.68
C       1.62      -0.81      57.50
O       1.36       2.92      54.13
H       4.47      -5.32      62.01
H       1.66      -2.89      64.19
C       3.89      -4.38      64.48
C       3.15      -4.13      63.25
C       3.66      -4.60      62.03
C       2.07      -3.23      63.25
O       0.15       1.28      53.13
O       5.16      -4.07      64.54
O       3.25      -4.78      65.55
