22

C      10.08       5.11       7.09
C      11.09       6.23       7.43
C      12.92       7.53       6.45
C      13.64       7.43       5.08
C      12.44       8.94       6.69
C      11.41       9.48       5.92
C      11.02      10.81       6.09
C      11.66      11.62       7.03
C      12.69      11.09       7.81
C      13.08       9.75       7.64
N      11.88       6.52       6.42
H      13.68       7.27       7.21
H      10.92       8.85       5.17
H      10.22      11.22       5.47
H      11.36      12.66       7.16
H      13.20      11.70       8.55
H      13.89       9.34       8.24
O      10.12       4.64       5.89
O      11.11       6.76       8.59
O       9.28       4.75       7.99
O      13.41       6.40       4.35
O      14.41       8.38       4.76
