22

H       9.22       1.50      17.06
H      11.96       3.10      15.02
H      14.37       2.52      15.32
H      15.04       0.80      16.99
H      13.30      -0.32      18.39
H      10.91       0.27      18.08
N       9.48       3.42      16.24
C       9.17       5.70      16.89
C       9.62       4.26      17.24
C       9.82       2.01      16.28
C       9.38       1.43      14.92
C      11.28       1.72      16.53
C      12.26       2.36      15.76
C      13.61       2.03      15.93
C      13.99       1.06      16.87
C      13.02       0.43      17.65
C      11.67       0.76      17.48
O       8.74       5.88      15.69
O      10.08       3.99      18.41
O       9.26       6.57      17.78
O       8.61       2.14      14.17
O       9.80       0.28      14.61
