120

V       5.68      16.62      16.61
V       1.47       5.73       5.46
V       2.03      16.91      16.50
V       5.12       5.44       5.57
H       0.07       9.88      19.60
H       7.07      12.48       2.47
H       3.06       8.60      13.49
H       4.09      13.76       8.58
H       0.04       2.91       1.93
H       7.12      19.45      20.14
H       3.32       8.29       9.10
H       3.83      14.07      12.97
H       0.09       8.60      17.60
H       7.06      13.76       4.47
H       3.10       9.88      15.49
H       4.05      12.48       6.58
H       0.02      10.06      21.95
H       7.12      12.30       0.12
H       3.18       8.41      11.14
H       3.97      13.95      10.93
H       6.07      14.11       6.59
H       0.60      14.09       6.67
H       6.93      14.88       7.97
H       0.62      16.58       6.48
H       6.13      16.60       6.40
H       6.55       8.27      15.40
H       1.07       8.25      15.48
H       0.21       7.48      14.11
H       1.02       5.76      15.67
H       6.53       5.78      15.59
H       3.30      12.24       4.34
H       5.10      12.02       4.51
H       4.22      11.34       3.09
H       4.76       9.55       4.68
H       2.99       9.77       4.53
H       2.05      10.34      17.56
H       3.85      10.12      17.73
H       2.93      11.02      18.98
H       4.16      12.59      17.54
H       2.39      12.81      17.39
C       3.64      15.91      18.85
C       3.51       6.45       3.22
C      -0.01      17.62      14.25
C       7.16       4.73       7.82
C       3.64      14.51      15.50
C       3.51       7.85       6.57
C      -0.03      19.03      17.61
C       7.18       3.33       4.46
C      -0.08      20.35      18.24
C       7.23       2.01       3.83
C       3.57      13.19      14.87
C       3.58       9.16       7.20
C       0.04       7.67      18.15
C       7.10      14.69       3.92
C       3.25      10.80      14.95
C       3.90      11.56       7.13
C       0.05       6.44      17.47
C       7.10      15.92       4.60
C       3.35      12.03      15.63
C       3.80      10.33       6.44
C       7.15      20.40      19.63
C      -0.01       1.96       2.44
C       3.67      13.13      13.48
C       3.47       9.22       8.59
C      -0.13      21.63      20.33
C       7.28       0.73       1.74
C       3.56      11.91      12.78
C       3.59      10.45       9.29
C      -0.00       7.72      19.55
C       7.15      14.64       2.52
C       3.35      10.74      13.55
C       3.80      11.62       8.53
C       7.13      21.72      21.76
C       0.01       0.64       0.32
C       3.64      11.82      11.35
C       3.51      10.54      10.72
C      -0.01       9.06      21.57
C       7.15      13.30       0.50
C       3.30       9.40      11.53
C       3.85      12.95      10.54
C       0.02       8.96      20.18
C       7.12      13.40       1.89
C       3.22       9.51      12.91
C       3.93      12.85       9.16
C       7.21       4.25       9.20
C      -0.06      18.11      12.87
C       3.56       6.93       1.84
C       3.59      15.43      20.23
C       7.24       3.86      10.35
C      -0.09      18.50      11.72
C       3.60       7.32       0.68
C       3.55      15.04      21.39
C       7.03      16.02       6.12
C       6.98      14.69       6.87
C       0.12       6.34      15.95
C       0.16       7.67      15.20
C       3.92      10.23       4.93
C       4.15      11.55       4.18
C       3.23      12.13      17.14
C       3.00      10.81      17.89
O       2.46      15.11      15.69
O       4.69       7.25       6.38
O       6.09      18.43      17.41
O       1.06       3.93       4.66
O       4.83      16.04      18.31
O       2.31       6.32       3.76
O       1.19      17.50      14.80
O       5.96       4.86       7.28
O       4.87      14.97      15.76
O       2.28       7.39       6.31
O       1.20      18.57      17.35
O       5.95       3.79       4.72
O       6.14      17.35      14.84
O       1.00       5.01       7.23
O       2.49      16.19      18.26
O       4.66       6.17       3.81
O       3.69      17.55      16.26
O       3.46       4.81       5.81
O       0.05      15.99      16.85
O       7.10       6.37       5.22
