42

H       8.58      18.04       9.38
H       6.36      17.11      10.15
H       4.28      17.93       9.05
H       4.46      19.59       7.17
H       4.34      21.09       3.30
H       3.13      22.21       1.45
H       6.29      25.07       1.05
H       7.53      23.98       2.92
H      10.16      22.67       6.05
H      12.28      23.56       5.11
H      10.93      22.68       1.14
H       8.78      21.79       2.05
H       4.96      21.06       5.40
C       7.64      18.37       8.95
C       6.41      17.86       9.37
C       5.25      18.32       8.74
C       5.35      19.24       7.70
C       6.62      19.69       7.33
N       8.14      20.94       5.88
C       8.07      21.68       4.72
C       6.88      20.59       6.21
N       6.01      21.10       5.31
C       6.72      21.80       4.35
C       4.09      22.58       1.78
C       4.64      23.70       1.13
C       6.03      22.45       3.24
N       7.74      19.27       7.96
C       4.78      21.96       2.82
C       6.57      23.58       2.60
C       5.88      24.19       1.55
C       9.30      22.20       4.12
C      10.31      22.68       4.97
C      11.50      23.18       4.46
C      11.72      23.21       3.07
C      10.74      22.69       2.21
C       9.54      22.19       2.73
C      12.96      23.85       2.55
O       4.41      25.44      -0.45
O      13.61      24.66       3.27
C       3.85      24.40       0.06
O      13.31      23.58       1.33
O       2.70      23.96      -0.23
