35

Co      22.50      15.30       5.16
Co      23.48       9.84       8.52
Co      22.59      12.15       6.34
Co      24.42      16.07       7.29
Co      24.46      12.93       8.44
Co      23.48      18.44       5.24
C      23.55      11.36      11.03
C      20.61      17.68       4.91
O      21.63      18.29       4.35
O      23.22      15.73       3.20
O      23.37      11.82       7.79
O      23.13      14.22       7.08
C      23.91       9.48       5.55
O      24.33       9.19       6.76
O      22.80      10.54      10.32
O      20.71      16.40       5.28
O      23.65      10.74       5.20
O      21.87      13.38       4.86
O      23.41      16.48       5.98
O      25.29      14.78       8.61
O      21.60       9.42       7.78
O      20.77      11.41       7.02
O      22.65      18.92       7.05
O      23.96      17.73       8.53
O      24.25      17.77       3.46
O      25.38      10.13       9.27
O      26.11      11.75       7.87
O      25.39      18.70       5.99
O      26.11      16.55       6.19
O      24.04      12.49      10.49
C      23.54      16.95       2.73
C      20.65      10.33       7.76
C      23.35      18.86       8.15
C      26.31      10.59       8.47
C      26.31      17.79       5.80
