438

H      25.56       6.69      45.04
H      25.25       8.96      45.62
H      27.29       3.74      39.60
H      20.47      18.66      28.53
H      18.35      19.52      29.10
H      21.85      16.91      27.69
H      17.27      22.15      34.02
H      20.75      14.81       0.34
H      21.54      16.24       0.04
H      22.40      16.05      25.29
H      18.92      18.56      39.34
H      19.74      19.67      40.25
H      27.14       2.83      42.06
H      25.04       6.22      40.68
H      27.10       3.08       0.74
H      26.41       4.21      45.89
H      17.89      18.65      33.33
H      21.73      12.67      46.94
H      18.07      19.08      37.14
H      16.44      20.97      28.31
H      22.16      10.37      46.95
H      15.74      22.12      26.35
H      15.55      21.96      32.16
H      25.79       2.80      44.02
H      23.71       6.19      42.63
H      21.35       5.24      43.60
H      19.51       3.82      43.07
H      21.78       0.46      44.24
H      23.58       1.87      44.80
H      22.38       3.79      47.06
H      23.06       2.70       1.91
H      21.52       5.88      45.93
H      21.19       8.16      46.50
H      19.56       0.14      43.41
H      26.40       1.49       2.60
H       4.73       2.61      10.64
H       5.38       3.79      12.60
H       8.71       2.73       9.26
H       9.36       3.90      11.21
H       9.71       6.41      12.18
H       9.41       8.71      11.64
H       5.36       8.43      12.82
H       5.68       6.17      13.39
H       7.94       6.24      15.65
H       6.66       6.20      17.62
H       4.97       2.52      16.45
H       6.29       2.55      14.47
H       8.87       2.04      13.62
H      10.18       5.94      14.51
H      12.32       5.09      15.08
H      10.99       1.18      14.21
H       6.19      10.50      11.97
H       5.44       2.02       8.18
H       3.94       3.91      18.31
H      13.76       3.15      15.53
H      13.86      18.61      24.97
H      14.55      17.47      26.92
H      16.55      15.90      27.89
H      18.69      15.02      27.35
H      17.29      17.53      31.36
H      14.91      20.80      30.18
H      13.18      18.83      29.33
H      15.90      15.73      30.22
H      14.10      14.31      30.79
H      11.37      17.42      29.92
H      14.88      21.80      23.89
H      11.70      14.04      31.24
H     -11.24      24.96      41.99
H      -9.90      24.94      43.95
H      -9.31      21.45      40.65
H      -7.98      21.44      42.61
H      -5.61      22.47      43.51
H      -3.71      23.87      43.19
H      -5.91      27.16      44.67
H      -7.77      25.76      45.03
H      -6.69      23.57       0.03
H      -7.36      24.63       2.02
H     -11.35      24.70       0.64
H     -10.67      23.58      45.78
H      -9.86      21.02      45.07
H      -5.74      21.60      45.72
H      -5.47      19.27      46.06
H      -9.60      18.70      45.44
H      -3.53      27.33      44.45
H     -11.47      24.01      39.55
H     -10.64      26.10       2.61
H      -6.39      16.98      45.74
H      10.97      24.78      10.57
H      10.29      23.63      12.54
H       6.97      24.85       9.23
H       6.30      23.72      11.19
H       6.00      21.14      12.10
H       6.27      18.80      11.78
H      10.21      19.06      13.25
H       9.93      21.37      13.61
H       7.50      21.52      15.74
H       8.75      21.57      17.73
H      10.80      25.00      16.35
H       9.50      24.97      14.36
H       6.87      25.56      13.65
H       5.32      21.70      14.31
H       3.16      22.62      14.64
H       4.74      26.49      14.02
H       9.17      16.91      13.04
H      10.27      25.45       8.14
H      11.66      23.69      18.31
H       1.64      24.56      14.33
H      -0.29       5.63      26.28
H      -0.94       6.80      28.25
H       1.78       9.06      24.94
H       1.13      10.21      26.90
H      -0.95      11.75      27.80
H      -3.11      12.69      27.49
H      -4.86       9.14      28.96
H      -2.72       8.24      29.31
H      -1.37      10.27      31.45
H      -1.95       9.15      33.44
H      -0.01       5.67      32.06
H       0.62       6.81      30.07
H       2.44       8.79      29.36
H      -0.13      12.07      30.02
H       1.75      13.47      30.35
H       4.31      10.18      29.73
H      -6.20      11.12      28.75
H       0.64       5.90      23.85
H      -1.57       5.58      34.02
H       4.19      13.82      30.03
H      18.30       2.15      16.06
H      19.15       0.75      15.75
H      15.96       2.37      15.53
H       8.56      10.60      31.76
H       6.93      10.56      31.46
H       9.92      12.51      31.24
H       6.04      12.84       9.02
H       6.66      11.41       9.58
H       6.52      14.95      10.09
H       1.57      26.64      40.45
H      18.56       0.08      41.01
H      -0.50      26.01      41.51
H      -8.16      15.87      24.74
H      -6.57      14.40      25.80
H      22.47       1.86       7.92
H      23.02       0.59       8.84
H      23.34       2.33       5.72
H       6.23       7.14      23.63
H       4.85       7.30      24.54
H       6.20       6.15      21.43
H      -6.75      25.62       7.95
H      -7.29      26.90       8.87
H      -7.61      25.17       5.75
H       9.31      20.56      23.66
H      10.68      20.39      24.58
H       9.35      21.53      21.46
H      -3.11       9.18      39.37
H      -3.94       8.08      40.29
H      -2.29       8.66      37.17
C      27.06       4.59      40.06
C      19.81      16.73      27.93
C      19.66      18.06      28.40
C      17.25      21.16      34.05
C      21.10      16.25      27.69
C      23.65      12.42      46.08
C      22.56      13.16      46.61
C      22.60      14.58      46.63
C      22.59      14.46      27.42
C      18.27      20.96      36.22
C      18.43      20.03      37.26
C      19.13      20.38      38.44
C      28.24       6.05      38.56
C      24.62       6.98      45.32
C      24.44       8.33      45.67
C      26.27       4.56      41.20
C      22.95      10.15      46.39
C      16.80      20.44      32.94
C      18.39      18.56      28.74
C      23.17       8.81      46.07
C      25.69       3.87      46.52
C      26.10       3.22       0.58
C      25.65       3.56      43.36
C      26.43       3.56      42.19
C      25.24       5.51      41.39
C      24.45       5.49      42.56
C      15.92      21.03      32.00
C      17.25      19.13      32.68
C      16.90      18.46      31.50
C      15.85      20.47      27.65
C      15.46      21.15      26.48
C      18.63      15.97      27.74
C      22.12       7.87      46.17
C      22.31       6.52      45.81
C      23.55       6.05      45.29
C      23.80       4.60      44.87
C      24.31       4.03      46.19
C      25.15       2.75       1.52
C      23.79       3.01       1.26
C      23.39       3.66       0.08
C      22.63       3.73      44.38
C      24.68       4.57      43.62
C      21.44       4.24      43.78
C      20.36       3.40      43.45
C      20.44       2.00      43.64
C      21.66       1.47      44.11
C      22.73       2.31      44.45
C      25.55       2.00       2.63
C      19.38       1.12      43.40
C      11.90       3.05      14.65
C      11.61       4.43      14.75
C      10.34       4.94      14.39
C       9.32       4.10      13.88
C       9.59       2.71      13.90
C      10.85       2.19      14.25
C       7.94       4.61      13.45
C       7.18       4.45      14.78
C       6.36       3.34      15.10
C       5.59       3.31      16.29
C       5.65       4.37      17.23
C       6.57       5.41      16.97
C       7.33       5.44      15.79
C       7.77       6.06      12.96
C       7.47       3.86      12.20
C       6.11       3.53      11.94
C       5.72       2.85      10.77
C       6.67       2.49       9.78
C       8.00       2.91       9.97
C       8.38       3.60      11.14
C       8.80       6.83      12.36
C       8.61       8.19      12.03
C       7.36       8.82      12.22
C       6.29       8.03      12.69
C       6.49       6.68      13.03
C       6.29       1.80       8.64
C      13.17       2.58      14.97
C       4.81       4.40      18.34
C       7.13      10.18      11.98
C      12.54      15.70      30.36
C      13.88      15.26      30.46
C      14.96      16.10      30.10
C      14.75      17.40      29.58
C      13.40      17.87      29.61
C      12.32      17.03      29.96
C      15.88      18.34      29.16
C      16.11      19.08      30.49
C      15.56      20.34      30.81
C      17.21      17.76      28.67
C      15.46      19.13      27.91
C      14.68      20.50      25.49
C      14.37      19.14      25.68
C      14.78      18.46      26.85
C      17.36      16.49      28.07
C      14.26      21.17      24.35
C      11.50      14.83      30.68
C      -7.50      18.73      45.75
C      -6.40      19.62      45.84
C      -6.56      21.00      45.61
C      -7.81      21.56      45.23
C      -8.92      20.67      45.27
C      -8.77      19.29      45.50
C      -8.04      23.03      44.86
C      -8.59      23.54      46.19
C      -9.95      23.82      46.46
C     -10.36      24.46       0.52
C      -9.42      24.81       1.53
C      -8.08      24.41       1.33
C      -7.68      23.78       0.14
C      -6.85      23.92      44.45
C      -8.89      23.10      43.58
C      -9.79      24.16      43.30
C     -10.57      24.19      42.12
C     -10.45      23.17      41.15
C      -9.47      22.18      41.36
C      -8.69      22.17      42.53
C      -5.68      23.45      43.79
C      -4.56      24.28      43.58
C      -4.60      25.65      43.95
C      -5.82      26.17      44.43
C      -6.92      25.33      44.64
C     -11.25      23.16      40.01
C      -7.31      17.35      45.86
C      -9.80      25.56       2.64
C      -3.49      26.49      43.92
C       3.71      24.65      14.33
C       3.93      23.26      14.42
C       5.21      22.70      14.20
C       6.32      23.51      13.81
C       6.10      24.91      13.85
C       4.83      25.47      14.08
C       7.70      22.97      13.44
C       8.42      23.18      14.77
C       9.34      24.23      15.04
C      10.10      24.26      16.23
C       9.93      23.28      17.24
C       8.92      22.31      17.04
C       8.18      22.28      15.85
C       7.88      21.50      13.03
C       8.19      23.67      12.16
C       9.56      23.92      11.88
C       9.98      24.58      10.70
C       9.03      24.99       9.73
C       7.68      24.63       9.94
C       7.28      23.96      11.11
C       6.89      20.72      12.38
C       7.05      19.33      12.16
C       8.25      18.68      12.53
C       9.31      19.48      13.01
C       9.13      20.85      13.22
C       9.42      25.69       8.60
C       2.42      25.17      14.44
C      10.78      23.23      18.35
C       8.43      17.29      12.50
C       3.23      11.98      30.04
C       1.91      12.49      30.13
C       0.80      11.66      29.91
C       0.94      10.30      29.52
C       2.26       9.78      29.56
C       3.38      10.60      29.79
C      -0.22       9.37      29.15
C      -0.39       8.64      30.48
C       0.05       7.32      30.75
C      -0.30       6.64      31.94
C      -1.07       7.28      32.95
C      -1.40       8.64      32.75
C      -1.05       9.30      31.56
C      -1.58       9.95      28.74
C       0.14       8.59      27.87
C      -0.33       7.28      27.59
C       0.04       6.59      26.41
C       0.87       7.20      25.44
C       1.23       8.55      25.65
C       0.85       9.23      26.82
C      -1.76      11.20      28.09
C      -3.04      11.75      27.87
C      -4.21      11.04      28.24
C      -4.05       9.72      28.72
C      -2.77       9.18      28.93
C       1.27       6.52      24.31
C       4.33      12.84      30.15
C      -1.53       6.57      34.06
C      -5.49      11.58      28.21
C      -8.35      15.22      46.14
C      14.79       0.83      14.67
C      15.97       1.40      15.19
C      17.17       0.66      15.22
C       1.09      27.14      14.72
C       9.18      14.30      30.38
C       9.08      12.99      30.90
C       7.84      12.32      30.93
C       6.70      13.00      30.43
C       7.76      15.15      11.78
C       7.07      14.44      10.78
C       7.17      13.02      10.72
C       7.94      12.36      11.71
C      -1.30      26.99      43.20
C      -0.33      26.75      42.21
C       0.84      27.53      42.14
C      17.08       0.73      43.13
C      -7.02      13.22      27.49
C      -7.29      14.18      26.49
C      23.55      14.80      26.43
C      24.87       1.22       4.80
C      23.98       1.54       5.84
C      23.94       0.77       7.02
C       8.77      27.47       7.11
C       4.47       5.37      20.51
C       5.20       5.99      21.55
C       4.55       6.41      22.73
C       3.15       6.20      22.82
C     -12.47      21.70      38.53
C      -9.14      26.30       4.83
C      -8.25      25.97       5.86
C      -8.21      26.74       7.05
C       6.97       0.04       7.15
C      11.09      22.28      20.53
C      10.35      21.68      21.57
C      11.00      21.26      22.76
C      12.40      21.46      22.86
C      -2.51       6.78      36.24
C      -2.66       7.72      37.28
C      -3.35       7.37      38.47
N      21.54      15.27      47.13
N      23.69      11.10      45.95
N      22.93      13.53      28.35
N      24.10      12.95      28.38
N      21.38      15.00      27.57
N      18.80      22.20      36.39
N      19.28      19.46      39.43
N      17.71      20.56      35.09
N      28.42       5.21      37.51
N      27.50       5.71      39.61
N      -7.35      14.44      45.64
N      -7.40      13.13      45.62
N      -8.28      16.54      46.06
N      -0.08      26.67      14.22
N      -1.19      27.37      14.20
N      18.30       1.23      15.71
N      13.62       1.45      14.53
N       2.21      26.42      14.64
N       6.88      14.26      29.93
N       8.04      14.86      29.91
N       7.77      11.05      31.42
N      10.30      15.00      30.24
N       5.52      12.40      30.35
N       8.57      13.12      12.64
N       8.49      14.43      12.67
N       6.54      12.36       9.71
N       7.68      16.48      11.84
N       8.07      11.05      11.87
N      16.11       0.90      44.06
N      15.02       0.18      44.09
N       1.73      27.32      41.13
N      -2.41      26.25      43.26
N      18.15       1.50      43.28
N      -8.82      15.68      25.42
N      -5.83      12.63      27.55
N       9.60      27.22       6.06
N      25.68       0.14       4.97
N      23.06       1.09       8.01
N      24.79       1.90       3.67
N       8.69      26.65       8.15
N       2.51       5.60      21.77
N       3.13       5.21      20.69
N       5.26       7.01      23.71
N       5.10       5.10      19.38
N       2.47       6.67      23.86
N     -12.66      22.55      37.48
N     -11.72      22.05      39.57
N       6.15       0.31       6.09
N      -9.93      27.39       5.00
N      -7.34      26.40       8.04
N      -9.06      25.63       3.69
N       7.04       0.85       8.19
N      13.04      22.04      21.80
N      12.43      22.43      20.71
N      10.27      20.68      23.75
N      10.46      22.55      19.40
N      13.07      21.00      23.90
N      -3.05       5.55      36.42
N      -3.48       8.29      39.46
N      -1.96       7.18      35.11
