17

H      -1.34       0.73       3.28
H      -3.59       2.07       6.30
H      -2.92       0.45       6.36
N      -2.00       1.79       4.95
N       0.88      -0.49       5.07
N       2.15      -0.09       5.26
N       2.20       1.21       5.07
N       0.98       1.69       4.74
N      -0.73       2.74       7.30
N      -0.26       2.93       8.56
N      -1.01       2.26       9.40
N      -1.99       1.62       8.70
C      -1.26       0.64       4.37
C      -2.64       1.51       6.25
C       0.18       0.62       4.75
C      -1.80       1.93       7.41
H      -1.73      -0.32       4.62
