17

C       5.14       5.43       6.15
C       6.52       4.56       4.27
C       3.69       5.46       5.78
C       5.67       4.14       3.11
H       5.60       6.40       5.90
H       5.21       5.34       7.24
H       7.46       4.00       4.22
H       6.79       5.62       4.17
N       5.87       4.29       5.57
N       3.00       6.57       5.45
N       1.72       6.17       5.26
N       1.67       4.87       5.45
N       2.89       4.39       5.78
N       4.60       3.34       3.22
N       4.13       3.14       1.96
N       4.88       3.82       1.12
N       5.87       4.46       1.82
