17

N      -1.87       8.76       4.03
N      -4.75       7.52       2.11
N      -6.03       7.55       2.55
C      -2.61       8.69       2.74
C      -1.23       7.49       4.44
C      -4.05       8.35       2.91
H      -2.15       7.99       2.03
H      -2.54       9.68       2.28
H      -0.29       7.73       4.94
H      -0.95       6.88       3.57
C      -2.08       6.70       5.38
N      -6.08       8.36       3.58
N      -4.86       8.89       3.83
N      -3.14       7.20       6.02
N      -3.62       6.21       6.82
N      -2.87       5.14       6.66
N      -1.88       5.43       5.76
