23

Cu       5.30      14.00      20.84
Cu       3.22      13.89      22.51
C       5.42      15.70      23.14
N       6.74      14.31      19.18
N       1.60      13.81      24.10
C       2.88      15.77      20.46
O       6.02      15.44      22.04
O       4.29      15.25      23.53
O       3.98      15.34      19.99
O       2.30      15.35      21.52
C       7.78      13.59      18.80
C       6.57      15.30      18.22
O       4.39      12.47      19.92
O       2.51      12.52      21.22
H      -1.07      13.86      25.82
O       6.15      12.64      22.11
O       4.28      12.46      23.40
C      -0.02      13.84      26.15
C       0.87      13.82      25.01
H       0.17      14.73      26.77
H       0.14      12.93      26.76
C       3.24      12.05      20.28
C       5.48      12.16      23.07
