54

C      24.61      18.68      13.65
C      25.03      17.55      14.39
C      20.27      21.42      19.06
C      20.52      21.07      17.64
C      19.57      21.45      16.68
C      19.76      21.07      15.35
C      20.91      20.37      14.97
C      21.89      20.03      15.92
C      21.68      20.38      17.26
C      18.70      21.36      14.34
C      23.06      19.25      15.45
C      23.65      19.53      14.20
C      27.60      13.55      17.02
C      26.25      14.16      16.98
C      25.17      13.46      17.54
C      23.88      14.00      17.45
H      26.14      19.16       8.51
H      24.85      16.74      11.82
H      25.28      21.02      12.29
H      25.76      16.87      13.96
C      24.47      17.26      15.64
C      24.76      15.97      16.31
C      23.50      18.12      16.17
C      23.68      15.24      16.83
C      26.04      15.41      16.37
H      21.02      20.05      13.94
H      18.68      21.99      16.98
H      23.30      20.38      13.63
H      22.41      20.12      18.03
H      25.34      12.50      18.02
H      22.67      15.61      16.73
H      26.90      15.93      15.95
H      23.03      17.89      17.12
C      22.71      13.21      17.93
O      25.76      22.63      10.37
O      26.46      21.58       8.53
O      26.19      16.66       8.14
O      24.82      15.61       9.62
O      21.07      21.05      19.99
O      19.22      22.12      19.36
O      17.87      22.28      14.61
O      18.70      20.63      13.27
O      28.59      14.07      16.41
O      27.75      12.45      17.69
O      22.93      12.29      18.78
O      21.56      13.52      17.44
C      25.99      21.54       9.73
C      25.73      20.22      10.34
C      25.84      19.07       9.55
C      25.52      17.82      10.09
C      25.14      17.72      11.43
C      25.07      18.85      12.25
C      25.35      20.11      11.69
C      25.52      16.61       9.22
