54

C      19.36       7.04       8.48
C      18.27       7.75       7.75
C      18.09       7.50       6.39
C      17.10       8.18       5.68
C      16.28       9.11       6.34
C      16.44       9.36       7.71
C      17.44       8.67       8.41
C      15.50      10.29       8.40
C      14.98       9.96       9.66
C      16.90       7.87       4.24
C      14.48      16.13       5.14
C      13.65      15.22       5.99
C      12.27      15.41       6.02
C      11.48      14.60       6.83
C      12.07      13.60       7.61
C      13.46      13.38       7.57
C      14.24      14.21       6.75
C      14.04      12.25       8.33
C      15.03      11.44       7.75
C      10.00      14.79       6.82
H      18.72       6.78       5.87
H      15.50       9.61       5.77
H      17.60       8.86       9.47
H      15.32       9.06      10.16
C      12.27      10.81      13.66
C      12.37       8.52      12.87
C      13.06       8.95      11.73
C      13.34      10.32      11.53
C      12.94      11.24      12.51
C      13.99      10.75      10.26
C      13.54      11.90       9.59
H      15.41      11.69       6.76
C      11.98       9.45      13.84
H      11.43      12.96       8.21
H      15.32      14.08       6.71
H      11.80      16.19       5.42
H      11.44       9.11      14.72
H      13.34       8.21      10.98
H      13.16      12.30      12.39
H      12.75      12.50      10.04
C      12.02       7.09      13.06
O      17.57       6.92       3.71
O      16.06       8.54       3.53
O      19.42       7.17       9.75
O      20.16       6.34       7.76
C      11.87      11.77      14.72
O       9.49      15.64       6.01
O      15.72      15.85       5.00
O      13.87      17.12       4.60
O       9.24      14.13       7.62
O      11.28       6.76      14.05
O      12.44       6.19      12.25
O      12.00      13.02      14.48
O      11.41      11.27      15.81
