15

N       8.16       4.48       1.88
N       7.01       4.89       1.32
N       6.14       5.20       2.30
N       6.71       5.01       3.50
N      10.91       3.73       6.22
H      10.21       3.00       3.00
H      11.90       2.63       4.74
H       9.70       4.83       7.53
H       7.94       5.33       5.86
C       7.95       4.56       3.23
C       8.93       4.24       4.25
C      10.06       3.45       3.98
C      11.02       3.23       4.95
C       9.78       4.46       6.51
C       8.80       4.72       5.58
