15

N      -1.65       7.51       1.27
N      -2.48       7.87       2.26
N      -1.88       7.80       3.45
N      -0.48       7.17       1.81
N       2.22       6.30       6.18
H      -0.74       7.92       5.84
H       0.94       7.24       7.54
H       3.36       5.48       4.61
C      -0.63       7.35       3.16
C       0.36       7.05       4.17
C       0.16       7.38       5.54
C       1.09       7.00       6.48
H       1.77       6.09       2.84
C       1.55       6.36       3.87
C       2.44       6.01       4.85
