15

C       7.18       0.13       0.19
C       7.77       1.38       0.05
C       9.62       0.70       1.28
C       9.08      -0.56       1.47
N       8.98       1.69       0.59
C       7.82      -0.88       0.92
N       5.88      -3.86       1.03
H       6.24      -0.07      -0.31
H       9.65      -1.29       2.04
H      10.60       0.97       1.66
H       7.26       2.16      -0.50
N       7.92      -3.28       1.53
N       7.05      -4.32       1.49
C       7.24      -2.20       1.08
N       5.97      -2.54       0.78
