15

N      -1.99       4.18      13.53
N      -1.13       3.87      12.55
N      -1.69       4.06      11.35
N      -5.89       5.34       8.62
H      -5.19       6.07      11.85
H      -6.88       6.44      10.11
H      -4.68       4.25       7.32
H      -2.92       3.74       8.99
C      -2.94       4.51      11.62
C      -3.91       4.83      10.60
C      -5.05       5.62      10.87
C      -6.00       5.84       9.90
C      -4.76       4.61       8.34
C      -3.78       4.35       9.27
N      -3.14       4.60      12.97
