27

C       5.45      12.74       9.87
C       4.79      11.19       8.27
Mg       2.42      12.49       9.85
Mg      -3.48      16.79       9.78
Mg      -0.43      14.54       9.15
N      -5.50      17.48       9.28
N       4.50      11.92       9.37
O       0.44      13.21      10.59
O       1.97      12.23      11.85
O       3.09      14.38       9.94
O       1.44      15.40       8.76
O       1.72      11.77       8.14
O      -0.16      12.99       7.76
O      -2.29      13.70       9.51
O      -4.01      14.95      10.31
O      -0.79      16.13      10.48
O      -2.33      17.64      11.13
O      -0.98      15.71       7.50
O      -2.82      16.96       7.96
C       0.91      12.93      11.75
C      -5.82      18.40       8.33
C      -6.44      16.56       9.61
C       2.59      15.35       9.27
C       0.68      12.10       7.47
C      -1.77      16.67       7.28
C      -3.51      13.90       9.75
C      -1.20      17.03      11.27
