11

C       5.50       0.12       4.68
C       7.21       1.64       5.14
C       3.85       4.48       1.62
N       6.18       1.23       4.35
N       4.91       3.68       1.37
C       5.53       3.77       0.17
C       5.55       4.53       4.55
O       4.77       3.55       4.25
O       6.58       1.36       1.44
C       7.78       0.92       1.61
Cu       5.57       2.41       2.81
