43

Zn      13.07      13.51      13.20
Zn      10.14      15.44      12.60
Zn       7.27      13.55      13.49
Zn       9.90      16.33       9.13
Zn      10.28      18.53      14.48
N      11.52      15.27       9.81
N      11.59      14.87      11.08
N      12.73      14.20      11.31
N      12.88      15.31      14.13
N      11.77      16.03      13.94
N      11.83      17.18      14.63
N       8.72      17.25      14.79
N       8.71      16.09      14.11
N       7.63      15.36      14.42
N       7.42      14.18      11.58
N       8.48      14.91      11.22
N       8.40      15.26       9.93
N       9.07      12.66      13.73
N      10.15      13.39      13.42
N      11.26      12.65      13.53
N       9.97      17.88      10.43
N      10.14      17.60      11.73
N      10.09      18.72      12.46
C       6.90      16.07      15.33
C       9.49      11.40      14.06
C      13.43      14.16      10.14
C      12.66      14.85       9.18
C       6.61      14.05      10.49
C       7.23      14.75       9.43
O      10.33      16.57       7.25
C       9.88      19.77      11.61
C       9.81      19.23      10.31
C      10.04      20.90      15.47
O       5.63      13.02      14.44
C       5.43      11.81      13.99
O      14.62      12.30      13.22
O      11.10      20.15      15.34
C      13.03      17.21      15.29
C      13.70      16.01      14.96
C       7.59      17.28      15.56
C      14.71      11.99      14.49
C       9.35      17.23       6.69
C      10.89      11.40      13.93
