14

Cu      11.79      20.56      34.99
Cu       9.88      22.38      34.99
O      10.68      19.75      33.73
O      12.53      21.74      36.25
O      10.80      19.77      36.33
O      12.50      21.59      33.64
O      10.87      23.04      33.59
O       9.30      21.36      36.43
O      10.97      23.31      36.15
O       9.03      21.21      33.83
C       9.52      20.14      33.37
C      12.06      22.87      36.61
C       9.77      20.27      36.87
C      11.98      22.63      33.13
