104

Sc       8.95       3.20      13.35
Sc       5.55       3.20      13.35
Sc       7.25       6.15      13.35
Sc      -1.67       9.35       4.45
Sc       1.73       9.35       4.45
Sc       0.02       6.40       4.45
H       9.23       7.81      16.74
H       9.39       0.66      16.75
H       3.13       4.09      16.74
H      -1.96       4.74       7.84
H      -2.12      11.90       7.84
H       4.14       8.47       7.84
H       2.19      11.89       1.06
H      -4.10       8.47       1.06
H       1.99       4.74       1.06
H       5.09       0.66       9.97
H      11.37       4.08       9.96
H       5.28       7.81       9.97
H      -1.96       4.74       1.06
H      -2.12      11.90       1.06
H       4.14       8.47       1.06
H       9.23       7.81       9.97
H       9.39       0.66       9.96
H       3.13       4.09       9.97
H       5.09       0.66      16.74
H      11.37       4.08      16.75
H       5.28       7.81      16.74
H       2.19      11.89       7.84
H      -4.10       8.47       7.84
H       1.99       4.74       7.84
C       9.95       7.15      17.21
C       8.45       0.36      17.22
C       3.34       5.04      17.21
C      -2.68       5.40       8.31
C      -1.18      12.19       8.31
C       3.93       7.51       8.31
C       1.25      12.19       0.59
C      -3.89       7.51       0.59
C       2.71       5.40       0.59
C       6.02       0.36       9.50
C      11.16       5.04       9.49
C       4.56       7.15       9.49
C      -2.68       5.40       0.59
C      -1.18      12.19       0.59
C       3.93       7.51       0.59
C       9.95       7.15       9.50
C       8.45       0.36       9.49
C       3.34       5.04       9.49
C       6.02       0.36      17.21
C      11.16       5.04      17.22
C       4.56       7.15      17.21
C       1.25      12.19       8.31
C      -3.89       7.51       8.31
C       2.71       5.40       8.31
C       9.56       5.52      15.36
C      10.24       5.91      16.60
C       7.24       1.51      15.36
C       7.24       0.73      16.60
C       4.94       5.52      15.36
C       4.27       5.91      16.60
C      -2.29       7.03       6.45
C      -2.97       6.64       7.70
C       0.03      11.04       6.45
C       0.03      11.82       7.70
C       2.33       7.03       6.45
C       3.00       6.64       7.70
C       0.03      11.04       2.45
C       0.03      11.82       1.20
C      -2.29       7.03       2.45
C      -2.97       6.64       1.20
C       2.33       7.03       2.45
C       3.00       6.64       1.20
C       7.24       1.51      11.35
C       7.24       0.73      10.10
C       9.56       5.52      11.35
C      10.24       5.91      10.10
C       4.94       5.52      11.35
C       4.27       5.91      10.10
O       9.83       4.37      14.84
O       6.11       1.85      14.84
O       5.80       6.33      14.84
O      -2.56       8.18       5.94
O       1.16      10.70       5.94
O       1.47       6.22       5.94
O      -1.10      10.70       2.97
O      -1.43       6.22       2.97
O       2.60       8.18       2.97
O       8.37       1.85      11.87
O       8.70       6.33      11.87
O       4.67       4.37      11.87
O      -2.56       8.18       2.97
O       1.16      10.70       2.97
O       1.47       6.22       2.97
O       9.83       4.37      11.87
O       6.11       1.85      11.87
O       5.80       6.33      11.87
O       8.37       1.85      14.84
O       8.70       6.33      14.84
O       4.67       4.37      14.84
O      -1.10      10.70       5.94
O      -1.43       6.22       5.94
O       2.60       8.18       5.94
O       7.25       4.18      13.35
O       0.02       8.37       4.45
