12

Zn       6.48       4.50      11.46
H       8.96       5.34      10.61
O       6.24       2.55      11.47
O       5.96       4.45       9.55
O       6.24       4.48      13.45
C       4.79       6.87      11.65
N       9.24       4.00      11.97
N       8.47       4.71      11.26
C       4.78       4.33       9.05
C       5.18       4.37      14.18
O       5.97       6.39      11.53
C       5.17       1.84      11.59
