100

Cu       4.21       8.60       8.60
Cu       2.16       0.00       0.00
Cu       1.02       8.59       0.00
Cu       5.23      17.19       8.60
H       5.91       6.79      12.50
H       6.66       8.37      12.17
H       3.42       7.28      14.25
H       5.96       1.82      13.32
H       2.39       0.24      13.67
H       3.48       1.30      11.55
H       2.72      12.50       1.81
H       3.47      12.16       0.23
H       4.54      14.23       1.33
H       2.67      13.33       6.79
H       3.41      13.67       8.37
H       4.50      11.54       7.30
H       2.51      10.41       4.70
H       1.76       8.83       5.03
H       5.00       9.92       2.95
H       2.45      15.38       3.88
H       6.03      16.96       3.53
H       4.94      15.89       5.65
H       5.70       4.70      15.39
H       4.94       5.03      16.97
H       3.88       2.97      15.86
H       5.75       3.87      10.41
H       5.01       3.53       8.83
H       3.92       5.65       9.90
C       4.74       8.16      11.29
C       5.68       7.86      12.42
C       4.17       8.02      14.46
C       4.78       0.45      14.52
C       5.73       0.75      13.40
C       4.24       0.57      11.35
C       1.56      11.27       0.44
C       2.49      12.42       0.74
C       5.28      14.44       0.58
C       5.79      14.52       8.16
C       6.75      13.40       7.86
C       5.27      11.34       8.03
C       3.68       9.04       5.91
C       2.74       9.34       4.78
C       4.25       9.17       2.74
C       3.64      16.74       2.68
C       2.69      16.45       3.80
C       4.17      16.63       5.85
C       6.86       5.92      16.75
C       5.93       4.78      16.46
C       3.14       2.76      16.62
C       2.62       2.68       9.03
C       1.67       3.80       9.34
C       3.15       5.86       9.17
N       5.21       8.36      13.70
N       5.91       9.36      14.33
N       5.29       9.58      15.46
N       4.22       8.77      15.56
N       5.28       0.24      12.11
N       3.73      16.45      11.48
N       7.45      16.24      10.33
N       6.36      17.03      10.23
N       2.01      13.69       0.23
N       4.77      14.33      16.43
N       4.14      15.46      16.21
N       7.39      15.56      17.03
N       6.31      12.11       8.36
N       2.73      11.48       9.33
N       6.45      10.32       9.53
N       5.36      10.22       8.75
N       3.21       8.84       3.50
N       2.51       7.84       2.87
N       3.12       7.62       1.73
N       4.20       8.43       1.64
N       3.14      16.96       5.08
N       4.69       0.75       5.72
N       0.97       0.96       6.87
N       2.06       0.17       6.97
N       6.40       3.51      16.96
N       3.65       2.87       0.77
N       4.27       1.74       0.99
N       1.03       1.64       0.17
N       2.11       5.09       8.84
N       5.69       5.72       7.87
N       1.97       6.87       7.67
N       3.06       6.98       8.45
O       5.12       7.67      10.15
O       3.75       8.88      11.49
O       5.15       0.94      15.66
O       5.82      16.91      14.31
O       1.94      10.14       0.93
O       6.95      11.49      16.92
O       6.15      15.66       7.67
O       4.81      14.30       8.90
O       3.30       9.53       7.05
O       4.67       8.32       5.70
O       3.27      16.26       1.54
O       2.59       0.29       2.89
O       6.47       7.06      16.27
O       1.47       5.71       0.27
O       2.27       1.54       9.53
O       3.60       2.90       8.29
