60

Mn       6.33       1.10       5.61
Mn      -2.72       4.82       6.46
H       0.42       5.97       5.73
H       1.64       7.61       1.97
H       0.01       3.61       2.17
H       0.79       3.02      11.96
H       0.52       3.38       0.23
H       6.16      -0.82       8.04
H      -1.03      -0.94      10.43
H       0.82       2.93       9.89
H       0.02       2.89       7.56
H       3.19      -0.05       6.33
H       1.97      -1.70      10.09
H       3.60       2.31       9.89
H       2.82       2.90       0.11
H       3.09       2.54      11.83
H      -2.54       6.73       4.02
H       4.64       6.86       1.63
H       2.79       2.99       2.17
H       3.60       3.02       4.50
C      -0.47       3.59       4.81
C       0.10       4.70       4.00
C       0.51       5.87       4.65
C       1.07       6.91       3.91
C       5.49      -1.09       4.58
C       1.20       6.78       2.52
C       0.87       5.59       1.87
C       0.30       4.55       2.62
C       1.37       5.42       0.46
C       0.67       0.82      11.71
C      -1.19      -0.01       8.50
C      -0.78      -0.06       9.83
C      -0.01       0.98      10.38
C       0.25       2.07       9.55
C      -0.19       2.06       8.23
C       4.08       2.33       7.25
C       3.51       1.22       8.06
C       3.10       0.05       7.41
C       2.54      -1.00       8.16
C      -1.88       7.00       7.48
C       2.41      -0.86       9.54
C       2.74       0.33      10.19
C       3.31       1.36       9.44
C       2.24       0.49      11.60
C       2.94       5.09       0.35
C       4.80       5.92       3.56
C       4.39       5.98       2.23
C       3.62       4.94       1.68
C       3.36       3.85       2.52
C       3.80       3.86       3.84
N      -0.88       1.03       7.69
N       4.49       4.89       4.37
O      -0.45       2.39       4.36
O      -0.95       3.87       5.97
O       5.74      -1.11       5.83
O       5.66      -0.02       3.89
O       4.06       3.52       7.70
O       4.56       2.04       6.09
O      -2.13       7.03       6.23
O      -2.05       5.94       8.17
