144

Na       7.16       9.90       5.74
Na       7.14       7.02       3.98
Na       1.36       9.13       4.34
Na       1.35       9.04       7.71
Na       4.26       8.30       5.71
Na       4.24      11.27       4.09
Na       2.81      -0.79      10.04
Na       2.79       2.09      11.80
Na       5.71      -0.02      11.44
Na       5.69       0.06       8.06
Na       8.60       0.81      10.07
Na       8.59      -2.16      11.69
H       7.68       5.00       6.88
H       4.80       4.53      11.77
H       5.70       8.36       9.33
H       4.12       6.57      12.50
H       4.56       8.48      11.28
H       7.25       3.09       8.07
H       1.88      12.57       8.01
H       7.70      -1.18       5.97
H       8.60      13.01       3.87
H       7.01      -1.57       3.84
H       7.46      14.64       2.80
H       1.46      -3.66       9.07
H       4.78       9.76       0.89
H       1.91      -3.35      13.81
H       2.81       5.95       2.57
H       1.22      -5.00      15.22
H       1.67       4.21       1.70
H       4.36       0.57      14.41
H       3.33       4.11       8.90
H       0.46       4.58       4.00
H       1.36       0.75       6.44
H       8.46       2.54       3.27
H       0.22       0.63       4.50
H       2.91       6.02       7.70
H       6.23      -3.46       7.77
H       3.35      10.29       9.81
H       4.25      -3.90      11.91
H       2.67      10.68      11.94
H       3.11      -5.53      12.98
H       5.80      12.77       6.71
H       0.44      -0.65      14.89
H       6.25      12.46       1.97
H       7.15       3.15      13.20
H       5.56      14.11       0.56
H       6.01       4.90      14.08
H       0.01       8.53       1.36
C       7.00       7.49       7.25
C       6.73       6.27       8.10
C       5.72       5.15      10.05
C       6.01       6.34       9.32
C       7.18       5.05       7.66
C       5.00       5.28      11.27
C       5.54       7.58       9.81
C       4.59       6.50      11.70
C       4.86       7.65      10.97
C       6.92       3.89       8.39
C       6.18       3.89       9.54
C       5.83       2.55      10.15
C       1.21      11.64       5.67
C       0.94      12.99       6.30
C       8.62      -2.98       6.29
C       0.22      14.00       5.63
C       1.39      13.22       7.57
C       7.89      -1.99       5.57
C       8.44      13.82       4.30
C       7.48      -2.23       4.29
C       7.75      14.78       3.67
C       1.12      -3.79       8.21
C       0.39      -2.79       7.64
C       0.04      -1.60       8.49
C       4.11       8.20       2.86
C       3.84       8.07       1.38
C       2.83      -2.17      15.21
C       3.12       6.98       0.84
C       4.29       9.06       0.54
C       2.10      -3.29      14.72
C       2.64       5.93       1.66
C       1.69      -4.28      15.56
C       1.96       4.89       1.14
C       4.02      -0.10      14.96
C       3.28      -1.10      14.38
C       2.94      -0.96      12.91
C       2.66       1.62       8.53
C       2.39       2.84       7.68
C       1.38       3.96       5.73
C       1.67       2.77       6.46
C       2.84       4.06       8.11
C       0.65       3.83       4.51
C       1.20       1.53       5.96
C       0.24       2.61       4.07
C       0.51       1.46       4.81
C       2.57       5.22       7.39
C       1.83       5.22       6.24
C       1.49       6.56       5.63
C       5.55      -2.53      10.11
C       5.28      -3.88       9.47
C       4.27      12.09       9.48
C       4.57      -4.90      10.15
C       5.74      -4.11       8.21
C       3.55      11.10      10.21
C       4.09      -4.71      11.47
C       3.14      11.33      11.48
C       3.41      -5.68      12.11
C       5.47      12.90       7.56
C       4.73      11.90       8.14
C       4.39      10.70       7.28
C       8.45       0.91      12.91
C       8.18       1.04      14.40
C       7.17      11.28       0.57
C       7.46       2.13      14.94
C       8.63       0.05      15.24
C       6.44      12.40       1.06
C       6.99       3.18      14.12
C       6.03      13.39       0.22
C       6.30       4.22      14.64
C       8.36       9.21       0.82
C       7.63      10.21       1.40
C       7.28      10.07       2.87
O       6.37       7.56       6.16
O       7.80       8.35       7.65
O       6.49       1.56       9.74
O       4.91       2.45      10.98
O       0.58      10.67       6.15
O       2.01      11.56       4.72
O       0.70      -1.45       9.56
O       7.81      -0.83       8.16
O       3.48       9.11       3.46
O       4.90       7.42       3.41
O       3.60      -0.11      12.25
O       2.02      -1.62      12.41
O       2.03       1.55       9.62
O       3.46       0.76       8.13
O       2.15       7.55       6.03
O       0.57       6.66       4.80
O       4.92      -1.56       9.62
O       6.35      -2.45      11.06
O       5.05      10.56       6.22
O       3.47       9.94       7.61
O       7.82       0.00      12.31
O       0.56       1.69      12.37
O       7.94       9.22       3.52
O       6.36      10.73       3.37
