117

H      25.19       6.45       9.44
H      22.46       5.08       9.20
H      20.07       6.31       9.76
H      20.64       9.00       9.72
H      22.30       8.60       3.02
H      22.14       7.05       6.39
H      20.40       6.77       6.12
H      20.73       8.72       7.19
H      19.80      10.92       7.80
H      19.25      12.59       6.03
H      19.67      12.02       3.64
H      23.10       9.60       0.66
H      21.42       9.21       0.25
H      21.00       6.15       0.51
O      26.90       5.75       7.94
O      22.59       8.38       9.27
O      24.05       6.03       5.01
H      25.29       5.72      -0.05
H      22.94       4.30      -0.08
O      20.18      10.56       1.73
O      24.07       7.35       0.41
O      21.34       7.95       4.67
C      23.02       5.70       4.07
C      25.37       5.91       4.61
C      25.74       5.74       3.27
C      27.09       5.65       2.93
C      28.07       5.67       3.92
C      27.70       5.79       5.26
C      26.35       5.94       5.63
C      26.08       6.15       7.07
C      24.66       7.18       8.82
C      23.20       7.15       9.10
C      22.27       6.15       9.26
C      21.02       6.78       9.55
C      21.26       8.13       9.55
C      21.38       6.87       5.62
C      20.79       9.15       5.07
C      20.51       9.44       6.41
C      19.97      10.69       6.75
C      19.67      11.62       5.76
C      19.91      11.31       4.43
C      20.49      10.09       4.05
C      20.80       9.91       2.61
C      22.27       8.92       0.88
C      22.71       7.53       0.59
C      22.07       6.32       0.44
C      23.07       5.35       0.13
C      24.27       6.02       0.13
H      18.59       4.34       6.09
H      22.14       3.51       5.34
H      22.61       4.67       6.59
H      22.47       2.61       7.46
H      22.25       1.23       9.48
H      20.19       1.39      10.89
H      18.36       2.94      10.22
H      15.92       4.67       6.02
H      16.34       5.96       7.17
H      18.13       8.04       5.74
H      17.88       8.69       3.09
H      16.44       6.63       1.99
H      21.57       2.24       3.59
H      19.60       5.30       4.34
H      20.54       6.14       3.09
H      18.64       5.31       2.23
H      17.41       4.64       0.20
H      18.26       2.76      -1.21
H      20.33       1.56      -0.54
C      21.70       5.58       4.84
H      22.76      -0.16       3.65
H      23.85       0.66       2.52
H      25.21       3.04       3.96
H      25.89       3.01       6.61
H      24.42       0.97       7.70
N      17.90       4.66       6.77
N      22.10       1.70       2.91
C      21.84       4.43       5.85
C      20.51       3.50       7.65
C      21.56       2.68       8.05
C      21.44       1.90       9.21
C      20.29       1.99       9.99
C      19.26       2.85       9.62
C      19.33       3.60       8.43
C      18.14       4.41       8.07
C      16.71       5.38       6.31
C      16.98       6.27       5.14
C      17.63       7.46       4.97
C      17.51       7.81       3.59
C      16.78       6.80       3.00
C      20.57       5.33       3.83
C      20.14       3.77       2.03
C      19.01       4.48       1.63
C      18.32       4.11       0.48
C      18.79       3.06      -0.31
C      19.94       2.38       0.06
C      20.62       2.70       1.25
C      21.78       1.84       1.61
C      23.18       0.82       3.37
C      23.91       1.36       4.54
C      24.82       2.38       4.73
C      25.18       2.37       6.11
C      24.47       1.36       6.69
N      24.98       6.85       7.42
N      21.83       9.10       2.27
O      17.32       4.78       8.96
O      16.45       5.85       3.93
O      20.56       4.27       6.50
O      22.40       1.19       0.72
O      23.68       0.73       5.75
O      20.84       4.08       3.18
H      24.35       7.14       6.68
H      22.94       6.48       3.29
H      23.26       4.75       3.57
H      24.98       5.71       2.49
H      27.36       5.57       1.88
H      29.13       5.60       3.66
H      28.45       5.79       6.05
H      25.04       8.18       9.06
