92

Gd       0.34       4.34      10.16
Gd       6.92       0.09       0.96
Gd      -1.14       8.78      17.45
Gd       5.45       4.52       8.26
H       0.63       4.03       1.24
H      -0.85       8.45       7.97
H       3.22       5.03      13.16
H       4.70       0.61      14.46
H       6.01       1.41      12.47
H       5.16       4.84      17.18
H       2.56       3.84       5.25
H       1.26       3.03       3.27
H       7.92       0.24       5.78
H      -2.14       8.63      12.63
H       4.53       5.83      15.15
H       6.44       4.67       3.42
H      -0.22       7.45       5.94
H       1.09       8.26       3.96
H      -0.65       4.20      14.99
H       6.63       0.42      10.44
C       1.57       2.52       6.63
C      -2.34       7.77      15.18
C       1.09       2.61       4.25
C       0.86       7.52       1.43
C       5.46       1.38      14.56
C      -0.86       3.34      12.43
C       4.21       6.34      11.78
C       6.39       5.45       0.40
C      -0.28       4.23       0.69
C      -0.39       7.04       4.95
C       3.98       5.80      13.06
C       0.09       6.95       2.58
C       0.34       0.82       8.09
C       7.13       2.84      13.62
C       5.65       7.27      14.00
C       5.55       6.65       0.61
C       5.88       7.82      12.73
C       1.81       3.06       5.35
C      -0.88       5.94       2.40
C       5.18       7.36      11.61
C       7.54       0.20       9.89
C      -0.61       3.42      18.01
C       0.14       1.60       4.41
C       7.36       3.39      14.89
C       7.88       1.02       8.80
C       4.70       6.25      14.16
C       6.66       2.93      16.01
C      -1.14       5.25       1.11
C       6.07       4.63      17.73
C       4.93       1.34      16.98
C       8.12       1.09       3.23
C      -1.34       6.02       4.80
C       6.64       5.52       5.98
C      -1.76       8.66       8.52
C       6.93       3.62      17.30
C       6.18       1.83      13.46
C       0.61       1.51       6.80
C       5.70       1.91      15.84
C      -0.09       1.05       5.68
C       0.24       2.22      17.80
C      -2.09       7.85       9.61
C       3.44       5.77      10.64
C       7.03       2.22       8.58
C       0.33       7.48       3.85
C      -1.58       5.47       3.53
C       5.45       8.05      10.32
C       2.35       3.10       7.77
C      -1.25       6.65       9.84
O       1.50       2.26      17.88
O       3.96       5.77       9.47
O       0.02       6.70       9.76
O       2.30       5.28      10.91
O       0.33       7.53       0.27
O       6.90       5.50      10.04
O      -0.02       4.31      12.53
O       8.38       1.07      17.60
O       5.77       2.17       8.65
O       2.01       8.00       1.69
O       7.29       0.13       3.34
O       5.81       4.55       5.89
O       3.49       3.58       7.50
O      -2.60       7.79       0.81
O      -0.41       1.64       2.08
O       3.78       0.86      16.72
O       1.82       3.10       8.94
O       6.20       7.22      16.33
O      -1.11       3.36       8.37
O       5.45       1.33      18.15
O      -1.50       8.74      15.07
O       4.29       6.60       0.53
O      -1.89       6.08       7.12
O       7.68       2.78      11.29
