17

N      10.06       8.49      35.77
N      10.02       8.75      37.06
F       9.23       7.94      39.78
F       8.39       9.93      39.12
C       6.41       8.40      40.51
F       6.92       6.65      39.01
F       6.06       8.57      38.21
C       8.53       7.46      34.15
O       7.09       9.12      41.36
O       5.25       7.99      40.92
C       8.89       7.89      35.49
C       8.83       8.31      37.50
C       8.36       8.56      38.90
C       6.93       8.03      39.14
O       8.10       7.77      36.54
O       7.55       6.63      33.93
O       9.17       7.90      33.11
