17

N       2.10       5.34      17.66
N       2.99       5.77      18.53
O       1.77       4.79      14.54
O       0.72       6.71      14.89
F       5.87       7.48      17.41
C       5.01       6.64      20.93
F       6.96       6.93      19.68
F       5.68       5.18      19.23
F       4.65       8.61      18.90
O       3.90       7.28      21.14
O       5.58       6.11      21.96
O       3.34       6.89      16.64
C       2.34       6.03      16.53
C       3.72       6.70      17.89
C       4.97       7.34      18.45
C       5.65       6.51      19.57
C       1.59       5.84      15.29
