17

N      10.14       7.37       0.76
N      10.46       7.77      -0.45
F      13.63       9.33      -1.13
F      12.30       8.24      -2.55
F      12.54      11.50      -1.73
F      10.59      10.75      -0.93
C      11.10       7.60       3.02
C      11.13       7.79       1.57
C      11.63       8.43      -0.32
C      12.31       9.11      -1.47
C      11.62      10.47      -1.82
C      11.03      10.48      -3.21
O      12.07       8.46       0.93
O      10.15       6.94       3.61
O      12.01       8.12       3.79
O      11.57      11.16      -4.17
O       9.93       9.84      -3.49
