16

H       1.37      12.04       9.28
H       5.82      11.61      11.43
H       1.50      11.38      11.62
H       5.68      12.27       9.10
O       4.58      12.86       6.96
O       2.60      10.79      13.76
C       3.43      12.62       7.56
C       3.76      11.03      13.16
O       2.21      12.71       7.02
O       4.97      10.94      13.70
C       2.34      11.95       9.74
C       4.84      11.70      10.98
C       2.43      11.57      11.08
C       4.76      12.08       9.63
C       3.67      11.45      11.73
C       3.51      12.20       8.99
