44

H       4.14       3.78      18.16
H       3.57      -1.18      23.29
H       3.63       4.33      22.46
H       3.52      -1.69      18.97
H       3.26       2.62      26.29
H       3.86       0.02      15.13
H       4.05       4.07      20.47
H       3.68      -1.47      20.99
H       3.31       3.44      16.20
H       3.93       3.49      13.96
H       2.89       2.03      14.13
H       4.70       1.88      14.09
H       2.60      -0.73      25.17
H       3.09      -0.85      27.45
H       2.19       0.69      27.23
H       4.00       0.69      27.37
C       3.42       4.91      24.98
C       3.76      -2.27      16.45
C       3.71      -0.93      17.02
C       3.48       3.56      24.40
C       3.84       1.48      16.74
C       3.38       1.15      24.69
C       3.82       0.18      16.20
C       3.37       2.45      25.23
C       3.63      -0.78      18.40
C       3.60       3.42      23.03
C       3.71       0.49      19.01
C       3.63       2.14      22.42
C       3.83       1.63      18.16
C       3.52       1.00      23.27
C       3.69       0.66      20.44
C       3.74       1.97      21.00
C       3.92       3.06      20.13
C       3.65      -0.44      21.32
C       3.97       2.89      18.75
C       3.58      -0.28      22.69
C       3.85       2.49      14.44
C       3.12       0.15      26.97
N       3.88       2.64      15.89
N       3.23      -0.00      25.53
O       2.20       5.37      25.22
O       4.99      -2.74      16.21
O       4.60       5.51      25.15
O       2.58      -2.88      16.29
