156

Cu      13.41      18.54       6.63
Cu      23.99       3.06       8.64
Cu      23.98      12.43      15.27
Cu      13.41       9.16       0.00
Cu      14.64       2.34       6.62
Cu      22.75      19.25       8.64
Cu      14.63      14.56      15.27
Cu      22.76       7.03       0.00
Cu       9.35      11.51       6.63
Cu      28.05      10.09       8.64
Cu      17.47      16.19       0.00
Cu      19.93       5.40      15.27
H      20.85       4.42      11.21
H      12.09      14.61       7.69
H      16.54      12.04       0.43
H      25.30      12.12      11.21
H      23.14      15.85      11.21
H      18.70       3.17       7.69
H      18.70       8.31       0.43
H      14.25      15.85      11.21
H      12.09      12.12      11.21
H      25.30      14.61       7.69
H      20.85      12.04       0.43
H      16.54       4.42      11.21
H      18.69      18.42       7.58
H      23.15       5.74       4.06
H      14.25       5.74       4.06
H      18.69      13.29      14.84
H      20.85       9.55      14.84
H      16.54      17.18       4.06
H      12.09       9.47       4.06
H      25.30       6.98       7.58
H      25.30       9.47       4.06
H      16.54       9.55      14.84
H      12.09       6.98       7.58
H      20.85      17.18       4.06
C      19.91       4.25      10.69
C      12.42      14.42       8.71
C      17.48      11.50       0.44
C      24.97      13.02      10.69
C      23.76      15.12      10.69
C      18.70       3.55       8.71
C      18.70       9.40       0.44
C      13.63      15.12      10.69
C      12.42      13.02      10.69
C      24.97      14.42       8.71
C      19.91      11.50       0.44
C      17.48       4.25      10.69
C      18.70      18.04       6.56
C      23.76       6.47       4.58
C      13.63       6.47       4.58
C      18.69      12.20      14.83
C      19.91      10.10      14.83
C      17.48      17.34       4.58
C      12.42       8.57       4.58
C      24.97       7.17       6.56
C      24.97       8.57       4.58
C      17.48      10.10      14.83
C      12.42       7.17       6.56
C      19.91      17.34       4.58
C      19.91       3.78       9.37
C      21.20       3.46       8.70
C      13.23      15.35       9.37
C      13.59      16.63       8.70
C      17.49      10.10       0.44
C      16.20       9.35       0.36
C      24.16      13.96      11.35
C      23.80      13.75      12.78
C      24.16      15.35       9.37
C      23.80      16.64       8.70
C      17.49       3.78       9.37
C      16.19       3.46       8.70
C      19.91      10.10       0.44
C      21.20       9.35       0.36
C      13.23      13.96      11.35
C      13.59      13.75      12.78
C      12.02      13.26       9.37
C      11.09      12.30       8.70
C      25.37      13.26       9.37
C      26.30      12.30       8.70
C      18.70      12.19       0.44
C      18.70      13.69       0.36
C      18.70       4.48      11.35
C      18.70       4.90      12.78
C      17.49      17.81       5.89
C      16.19      18.14       6.57
C      24.17       6.24       5.89
C      23.80       4.96       6.57
C      13.23       7.64       3.92
C      13.59       7.85       2.49
C      19.90      11.50      14.83
C      21.20      12.24      14.91
C      18.69       9.40      14.83
C      18.70       7.91      14.91
C      18.70      17.11       3.92
C      18.70      16.69       2.49
C      12.02       8.34       5.90
C      11.09       9.29       6.57
C      25.38       8.34       5.90
C      26.30       9.29       6.57
C      24.17       7.64       3.92
C      23.80       7.85       2.49
C      17.48      11.50      14.83
C      16.19      12.24      14.91
C      13.23       6.24       5.90
C      13.59       4.96       6.57
C      19.91      17.81       5.90
C      21.20      18.14       6.57
O      21.12       2.99       7.51
O      14.29      17.46       9.37
O      16.27       8.08       0.31
O      23.10      14.66      13.34
O      24.25      16.80       7.51
O      15.13       3.65       9.38
O      22.27      10.05       0.31
O      13.15      12.68      13.34
O      10.72      12.60       7.51
O      26.67      11.28       9.37
O      17.56      14.26       0.31
O      19.84       5.05      13.34
O      15.13      17.95       5.89
O      24.24       4.79       7.76
O      13.15       8.91       1.93
O      22.26      11.54      14.96
O      17.55       7.33      14.96
O      19.84      16.54       1.93
O      10.72       9.00       7.76
O      26.67      10.31       5.89
O      23.10       6.93       1.93
O      16.27      13.52      14.96
O      14.29       4.13       5.89
O      21.12      18.61       7.76
O      16.27      18.61       7.76
O      23.10       4.13       5.89
O      21.12      13.52      14.96
O      14.29       6.93       1.93
O      13.15       4.79       7.76
O      22.26      17.95       5.89
O      15.12      11.54      14.96
O      24.25       8.91       1.93
O      26.67       9.00       7.76
O      10.72      10.31       5.89
O      19.84       7.34      14.95
O      17.56      16.54       1.93
O      22.27       3.65       9.37
O      13.15      16.80       7.51
O      24.24      12.68      13.34
O      15.13      10.05       0.31
O      19.84      14.26       0.31
O      17.55       5.05      13.34
O      26.67      12.60       7.51
O      10.72      11.28       9.37
O      14.29      14.66      13.34
O      21.13       8.08       0.31
O      23.10      17.46       9.38
O      16.27       2.99       7.51
