134

Cr       5.42       1.93       9.41
Cr       1.61       8.44       9.41
Cr      -1.81       8.49       9.32
Cr       0.00       1.18       0.17
Cr       1.52       4.04      18.67
Cr      -1.71       4.16       0.03
H       1.72       5.11      14.97
H      -1.92       4.46      14.78
H      -2.04       5.22      12.63
H       0.34       0.73      14.94
H      -4.17       9.37      12.67
H       3.28       1.59      15.08
H       2.65       2.58      12.98
H       5.93       1.47      13.23
H       9.02       1.59      13.03
H      -1.74       7.53       2.82
H       1.03       6.43       3.56
H       0.87       7.26       5.46
H       4.99       1.96       5.62
H       2.96       0.55       3.36
H       3.10       9.03       3.28
H       1.79       7.26      13.03
H       2.51       8.65       5.57
H       7.34       2.34       3.60
H       7.39       2.14       5.68
H       1.73       5.50      12.75
H      -0.29       3.84      14.56
H      -0.46       8.06      15.56
H      -0.39       8.55      13.41
H       5.90       4.35      14.20
H       4.66       3.06      14.06
H       4.52       4.26      15.36
H       5.39       2.13      16.30
H       6.54       3.50      16.43
H       3.63       6.04      16.32
H       3.89       6.70      14.64
H       4.00       7.77      16.10
H       1.79       8.16      15.08
H       1.60       7.31      16.61
H      -3.69       8.24       3.68
H      -3.68       6.43       3.80
H       6.24       7.43       4.88
H      -2.82       6.55       6.08
H      -2.80       8.35       6.02
H       4.12       4.56       5.74
H       5.73       4.23       4.96
H       4.79       5.71       4.53
H       4.66       3.99       2.75
H       3.05       4.42       3.48
H       6.41       6.98      15.43
H      -3.53       6.23      14.18
H       7.41       5.58      15.86
H      -2.40       7.50      16.77
H      -2.79       8.46      15.38
C       7.65       1.08      11.39
C      -1.05       7.27      15.04
C      -0.30       5.92      15.28
C      -0.24       6.47      12.73
C      -0.98       5.13      12.95
C      -0.97       7.61      13.53
C       2.42       1.63      12.51
C       2.28       1.39      15.44
C       1.33       0.97      14.58
C       1.64       0.76      13.16
C       7.98       1.47      12.73
C      -0.28       6.85      11.31
C       8.08       1.27      15.68
C       7.12       1.94      15.01
C       6.95       1.63      13.59
C      -0.14       7.36       5.82
C       0.14       6.66       2.98
C      -0.92       7.30       3.50
C      -1.18       7.40       4.95
C       2.95       1.59       6.04
C       3.11       1.59       3.08
C       3.74       2.42       3.92
C       3.16       1.32      11.28
C       3.97       1.89       5.24
C       7.50       1.11       6.00
C       7.93       1.53       3.18
C       8.06       0.33       3.77
C       7.79       0.12       5.18
C       1.96       1.78      16.81
C      -0.36       5.51      16.69
C       8.54       1.55      17.02
C       2.39       2.05       1.92
C      -0.03       5.90       1.76
C       7.23       0.83       7.38
C       8.77       1.83       2.06
C      -0.23       7.55       7.27
C       3.28       1.41       7.42
C       1.20       6.08      14.80
C       1.21       6.34      13.27
C      -0.91       4.76      14.44
C       6.07       2.79      15.72
C       5.24       3.66      14.77
C       1.97       7.19      15.57
C       3.47       6.90      15.65
C      -2.64       7.44       5.44
C      -3.74       7.38       4.37
C       4.01       3.90       3.66
C       4.71       4.64       4.80
C      -2.46       7.46      15.66
C      -3.57       6.50      15.25
O       4.00       2.18      10.89
O       0.86       7.37       7.98
O      -1.34       7.18       7.81
O       3.14       0.25       7.93
O       5.39      -0.06       9.38
O       9.35       0.69      17.50
O       1.11       1.09      17.48
O       2.40       2.90      17.20
O       0.71       5.09      17.22
O      -1.50       5.31      17.18
O       8.44       2.73      17.50
O       6.73       1.76      10.85
O       9.64       0.96       1.74
O       1.40       1.35       1.51
O       2.70       3.17       1.45
O       0.99       5.35       1.25
O      -1.21       5.58       1.42
O       8.73       2.99       1.53
O       0.00       3.16       0.03
O       2.52       9.45      10.96
O       0.79       7.29      10.78
O      -1.42       7.09      10.83
O       3.06       0.16      10.73
O       4.08       2.28       7.87
O       6.80       1.85       8.04
O       8.07       0.02       7.94
F      -2.23       7.85      13.03
F       8.84       0.35      15.01
F       1.66       1.53       5.61
F      -0.40       4.13      12.19
