248

Cd       1.35      10.60      13.76
Cd       3.44       0.01      27.53
Cd       4.78       5.23       6.87
Cd       0.02       5.38      20.63
H       4.04       6.44      14.12
H       6.22       5.25      13.75
H      -2.30       8.10      10.69
H       5.07       9.27      11.07
H       0.89       7.05      12.45
H       2.67       7.04      10.69
H      -0.16       5.44       7.87
H      -1.93       5.46       9.60
H       3.50       2.40       7.18
H       1.83       2.57       6.62
H       2.74       1.09       6.22
H       5.06       4.98       3.45
H       3.33       3.37       1.91
H       1.94       1.35       2.45
H       1.86       0.76       4.11
H       0.33       2.73       4.68
H       0.41       3.24       3.01
H       8.92       1.08       2.27
H       8.85       0.53       3.94
H       7.41       3.04       2.90
H       7.30       2.41       4.54
H       5.97       0.14       4.89
H      -0.66       9.50       3.24
H       5.83       1.72      27.29
H       5.92       3.12       0.86
H       7.35       2.10       0.59
H       0.75       4.17       0.36
H      -1.43       5.35      27.51
H       7.09       2.51      24.46
H      -0.28       1.34      24.84
H       3.91       3.55      26.22
H       2.12       3.56      24.45
H       4.95       5.17      21.63
H       6.72       5.14      23.36
H       1.29       8.21      20.94
H       2.96       8.04      20.39
H       2.05       9.52      19.98
H      -0.26       5.63      17.21
H       1.46       7.24      15.68
H       2.85       9.25      16.22
H       2.93       9.84      17.87
H       4.47       7.87      18.45
H       4.38       7.36      16.77
H      -4.13       9.53      16.03
H      -4.06      10.08      17.70
H      -2.62       7.57      16.66
H      -2.51       8.19      18.30
H      -1.18      10.47      18.65
H       5.45       1.11      17.00
H      -1.04       8.89      13.53
H      -1.12       7.49      14.62
H      -2.56       8.50      14.35
H       5.55       6.47      27.17
H       3.37       5.27       0.01
H       2.33       8.10       3.08
H       4.50       9.29       2.70
H      -0.85       7.05       1.29
H      -2.65       7.04       3.04
H       0.15       5.43       5.89
H       1.94       5.46       4.17
H       6.07       2.43       6.57
H       7.74       2.59       7.14
H       6.82       1.11       7.53
H       4.50       5.00      10.29
H       6.21       3.39      11.84
H       7.60       1.37      11.31
H       7.69       0.78       9.65
H      -0.32       2.74       9.08
H      -0.40       3.25      10.76
H       0.63       1.08      11.49
H       0.70       0.53       9.82
H       2.13       3.05      10.86
H       2.25       2.42       9.23
H       3.59       0.15       8.88
H       0.69       9.51      10.53
H       3.72       1.73      14.00
H       3.64       3.13      12.91
H       2.20       2.11      13.17
H      -0.76       4.14      13.41
H       1.42       5.34      13.77
H       2.46       2.51      16.84
H       0.29       1.32      16.46
H       5.64       3.56      15.06
H       7.44       3.57      16.80
H       4.64       5.17      19.65
H       2.85       5.15      17.94
H      -1.28       8.18      20.34
H      -2.95       8.01      20.90
H      -2.03       9.50      21.29
H       0.29       5.61      24.06
H      -1.42       7.22      25.60
H      -2.81       9.24      25.07
H      -2.90       9.83      23.41
H       5.12       7.86      22.84
H       5.20       7.36      24.52
H       4.16       9.52      25.25
H       4.09      10.07      23.58
H       2.66       7.56      24.63
H       2.54       8.19      22.99
H       1.21      10.46      22.64
H       4.10       1.10      24.30
H       1.07       8.88       0.24
H       1.16       7.48      26.67
H       2.59       8.49      26.94
C       3.20       8.74      12.92
C       4.43       7.94      12.63
C       4.74       6.79      13.37
C       5.94       6.13      13.16
C      -2.71       6.62      12.21
C      -3.01       7.73      11.43
C       5.33       8.38      11.64
C      -0.59       6.20      11.13
C       0.68       6.69      11.45
C       1.67       6.69      10.47
C       1.39       6.20       9.18
C       0.08       5.79       8.87
C      -0.92       5.80       9.84
C       2.50       5.99       8.20
C       2.82       2.18       6.35
C       3.33       2.84       5.12
C       4.39       4.17       3.74
C       3.55       3.41       2.97
C       1.79       1.67       3.49
C       0.43       2.36       3.66
C       8.82       1.43       3.31
C       7.47       2.12       3.49
C       5.72       0.29       3.85
C       0.04      10.29       3.03
C       5.84       1.20       1.82
C       6.26       2.08       0.71
C       1.59       1.87      26.68
C       0.36       2.66      26.39
C       0.05       3.81      27.13
C      -1.15       4.48      26.93
C       7.50       3.99      25.98
C       7.81       2.88      25.19
C      -0.54       2.22      25.41
C       5.38       4.40      24.90
C       4.12       3.92      25.21
C       3.13       3.92      24.23
C       3.40       4.41      22.94
C       4.71       4.81      22.63
C       5.71       4.80      23.60
C       2.29       4.61      21.96
C       1.97       8.43      20.11
C       1.47       7.77      18.88
C       0.40       6.43      17.50
C       1.24       7.20      16.74
C       3.00       8.94      17.25
C       4.36       8.25      17.42
C      -4.03       9.18      17.07
C      -2.67       8.49      17.26
C      -0.92      10.31      17.61
C       4.75       0.31      16.79
C      -1.04       9.40      15.58
C      -1.46       8.52      14.47
C      -3.17       8.75       0.84
C       5.15       7.96       1.14
C       4.84       6.81       0.40
C       3.65       6.14       0.60
C       2.74       6.62       1.56
C       3.05       7.74       2.34
C       4.25       8.40       2.12
C       0.62       6.20       2.63
C      -0.65       6.69       2.30
C      -1.65       6.69       3.27
C      -1.38       6.20       4.56
C      -0.08       5.79       4.89
C       0.93       5.80       3.93
C      -2.50       6.00       5.53
C       6.75       2.20       7.41
C       6.23       2.86       8.64
C       5.17       4.20      10.01
C       6.00       3.43      10.78
C       7.76       1.68      10.27
C      -0.43       2.37      10.11
C       0.73       1.43      10.45
C       2.08       2.13      10.27
C       3.84       0.30       9.92
C      -0.01      10.30      10.74
C       3.72       1.21      11.95
C       3.29       2.09      13.06
C       7.96       1.85      14.60
C      -0.36       2.65      14.90
C      -0.05       3.80      14.16
C       1.15       4.47      14.37
C       2.05       3.98      15.32
C       1.75       2.87      16.11
C       0.54       2.21      15.89
C       4.17       4.40      16.39
C       5.44       3.92      16.06
C       6.44       3.92      17.04
C       6.17       4.41      18.32
C       4.87       4.81      18.65
C       3.86       4.81      17.69
C       7.29       4.61      19.30
C      -1.95       8.41      21.17
C      -1.44       7.75      22.40
C      -0.37       6.41      23.77
C      -1.21       7.18      24.54
C      -2.97       8.93      24.03
C       5.22       8.24      23.87
C       4.06       9.17      24.22
C       2.71       8.48      24.03
C       0.96      10.30      23.68
C       4.80       0.30      24.50
C       1.08       9.39      25.71
C       1.50       8.51      26.82
N       4.25       3.81       5.07
N       2.89       2.56       3.85
N       6.35       1.26       3.08
N       4.89       0.26       1.77
N       0.54       6.80      18.84
N       1.90       8.04      17.62
N      -1.56       9.35      16.84
N      -0.10      10.35      15.53
N       5.31       3.83       8.68
N       6.67       2.58       9.90
N       3.20       1.27      10.68
N       4.66       0.27      12.00
N      -0.52       6.78      22.44
N      -1.87       8.02      23.67
N       1.59       9.34      24.45
N       0.13      10.34      25.76
O       2.40       8.35      13.84
O       3.02       9.82      12.26
O      -1.48       5.99      12.19
O       3.64       6.54       8.45
O       2.30       5.22       7.21
O       2.40       2.26       0.08
O       1.77       0.79      26.02
O       6.27       4.62      25.95
O       1.16       4.07      22.21
O       2.49       5.39      20.97
O      -2.36       8.36      27.46
O      -3.00       9.84       1.49
O       1.51       6.00       1.58
O       5.90       6.50       5.25
O      -2.30       5.27       6.56
O       7.15       2.25      13.69
O       7.79       0.76      15.25
O       3.28       4.61      15.34
O      -1.11       4.11      19.01
O       7.09       5.34      20.32
