352

Cd       6.33       4.46       3.50
Cd       8.52       2.20       1.94
Cd      10.78       4.47      11.22
Cd       8.58       2.20      12.77
Cd       0.62       7.12      25.93
Cd       2.83       9.38      27.49
Cd       5.08       7.12      18.21
Cd       2.88       9.38      16.67
Cd       5.09      18.70      25.94
Cd       2.89      20.97      27.49
Cd       0.62      18.70      18.22
Cd       2.83      20.96      16.67
Cd      10.78      16.05       3.50
Cd       8.58      13.78       1.95
Cd       6.33      16.05      11.22
Cd       8.53      13.79      12.77
H       6.51       0.91       6.95
H       6.73      19.86       5.96
H       6.48      22.85       2.87
H       6.89      20.74      11.91
H       7.25       0.43       8.74
H       6.11      19.49       7.89
H       6.34      17.45       0.47
H       7.75      18.70       4.32
H       5.27      21.34       1.92
H      10.59       0.91       7.76
H      10.38      19.86       8.75
H      10.64      22.85      11.85
H      10.22      20.74       2.80
H       9.86       0.43       5.97
H      11.00      19.49       6.82
H      10.78      17.45      14.25
H       9.36      18.70      10.40
H       0.44      21.34      12.80
H       0.81      10.67      22.48
H       1.03      14.89      23.47
H       0.77      11.90      26.57
H       1.18      14.01      17.52
H       1.56      11.16      20.69
H       0.41      15.26      21.54
H       0.64      17.30      28.97
H       2.05      16.05      25.11
H      10.97      13.41      27.52
H       4.90      10.67      21.67
H       4.68      14.89      20.68
H       4.93      11.90      17.59
H       4.53      14.01      26.63
H       4.16      11.16      23.46
H       5.30      15.26      22.61
H       5.07      17.31      15.19
H       3.66      16.05      19.04
H       6.14      13.41      16.64
H       4.90      22.26      22.48
H       4.68       3.31      23.47
H       4.93       0.32      26.57
H       4.52       2.43      17.52
H       4.16      22.74      20.70
H       5.30       3.68      21.55
H       5.07       5.72      28.96
H       3.66       4.46      25.11
H       6.14       1.83      27.52
H       0.82      22.26      21.67
H       1.03       3.31      20.68
H       0.77       0.32      17.59
H       1.18       2.43      26.64
H       1.56      22.74      23.46
H       0.41       3.68      22.61
H       0.63       5.72      15.19
H       2.05       4.47      19.04
H      10.97       1.83      16.64
H      10.60      12.49       6.95
H      10.38       8.28       5.96
H      10.64      11.27       2.87
H      10.22       9.16      11.91
H       9.86      12.01       8.74
H      10.99       7.90       7.89
H      10.77       5.86       0.47
H       9.36       7.12       4.32
H       0.44       9.75       1.92
H       6.51      12.49       7.76
H       6.73       8.28       8.75
H       6.48      11.27      11.85
H       6.89       9.16       2.80
H       7.25      12.01       5.98
H       6.11       7.90       6.83
H       6.34       5.86      14.25
H       7.75       7.12      10.39
H       5.27       9.76      12.80
C       6.38       1.86       4.46
C       6.49       0.43       4.88
C       6.56       0.10       6.23
C       6.66      21.91       6.65
C       6.67      20.91       5.67
C       6.57      21.21       4.30
C       6.50      22.58       3.92
C       6.18      18.61      10.41
C       7.51       0.19      11.34
C       6.46      20.00       9.93
C       6.82      20.99      10.86
C       7.09      22.28      10.40
C       7.02      22.58       9.04
C       6.69      21.59       8.09
C       6.40      20.29       8.57
C       4.98      19.70      29.23
C       7.78      16.62       2.61
C       5.74      19.43       1.07
C       6.38      18.20       1.25
C       7.08      17.94       2.44
C       7.16      18.92       3.44
C       6.53      20.17       3.26
C       5.81      20.41       2.07
C      10.72       1.86      10.25
C      10.61       0.42       9.83
C      10.54       0.09       8.48
C      10.46      21.91       8.06
C      10.44      20.91       9.05
C      10.54      21.21      10.42
C      10.62      22.58      10.80
C      10.93      18.61       4.31
C       9.59       0.18       3.37
C      10.66      20.00       4.79
C      10.29      20.99       3.86
C      10.02      22.28       4.31
C      10.09      22.58       5.67
C      10.42      21.59       6.62
C      10.71      20.29       6.15
C       0.73      19.69      14.93
C       9.33      16.62      12.11
C      11.37      19.44      13.65
C      10.74      18.20      13.47
C      10.04      17.94      12.28
C       9.96      18.92      11.28
C      10.59      20.17      11.45
C      11.30      20.41      12.65
C       0.69       9.72      24.98
C       0.79      11.16      24.56
C       0.86      11.49      23.20
C       0.96      12.84      22.78
C       0.97      13.85      23.77
C       0.87      13.54      25.13
C       0.80      12.17      25.52
C       0.46      16.14      19.02
C       1.82      11.40      18.09
C       0.74      14.75      19.50
C       1.11      13.77      18.58
C       1.39      12.47      19.03
C       1.32      12.18      20.40
C       0.99      13.17      21.34
C       0.70      14.46      20.87
C      10.68      15.06       0.21
C       2.08      18.13      26.83
C       0.04      15.32      28.36
C       0.68      16.55      28.18
C       1.38      16.81      27.00
C       1.46      15.83      26.00
C       0.83      14.58      26.17
C       0.11      14.34      27.37
C       5.02       9.72      19.18
C       4.92      11.16      19.60
C       4.85      11.49      20.95
C       4.75      12.84      21.37
C       4.74      13.84      20.38
C       4.84      13.54      19.02
C       4.91      12.17      18.64
C       5.24      16.14      25.13
C       3.90      11.40      26.06
C       4.96      14.76      24.65
C       4.60      13.77      25.58
C       4.32      12.47      25.12
C       4.39      12.18      23.76
C       4.72      13.17      22.81
C       5.01      14.46      23.28
C       6.43      15.06      14.51
C       3.63      18.13      17.33
C       5.67      15.32      15.79
C       5.03      16.55      15.97
C       4.33      16.81      17.16
C       4.25      15.83      18.15
C       4.89      14.58      17.98
C       5.60      14.34      16.78
C       5.03      21.31      24.98
C       4.92      22.74      24.56
C       4.85      23.07      23.20
C       4.75       1.26      22.78
C       4.74       2.26      23.77
C       4.84       1.95      25.14
C       4.91       0.59      25.52
C       5.24       4.56      19.03
C       3.90      22.97      18.10
C       4.96       3.17      19.51
C       4.59       2.18      18.58
C       4.32       0.89      19.04
C       4.39       0.60      20.40
C       4.72       1.58      21.35
C       5.01       2.88      20.87
C       6.43       3.47       0.21
C       3.63       6.54      26.82
C       5.67       3.73      28.37
C       5.03       4.97      28.18
C       4.33       5.23      26.99
C       4.25       4.25      26.00
C       4.88       3.00      26.17
C       5.60       2.76      27.37
C       0.69      21.31      19.19
C       0.80      22.75      19.60
C       0.87      23.08      20.96
C       0.96       1.26      21.37
C       0.97       2.26      20.39
C       0.87       1.96      19.02
C       0.79       0.59      18.64
C       0.45       4.56      25.12
C       1.82      22.99      26.07
C       0.74       3.17      24.65
C       1.11       2.19      25.58
C       1.39       0.89      25.12
C       1.32       0.60      23.76
C       0.99       1.59      22.81
C       0.69       2.88      23.29
C      10.68       3.48      14.51
C       2.08       6.54      17.33
C       0.04       3.73      15.79
C       0.67       4.97      15.97
C       1.37       5.23      17.16
C       1.45       4.25      18.15
C       0.82       3.00      17.98
C       0.11       2.76      16.79
C      10.72      13.44       4.46
C      10.62      12.01       4.88
C      10.55      11.68       6.23
C      10.45      10.33       6.65
C      10.44       9.32       5.67
C      10.54       9.63       4.30
C      10.61      10.99       3.92
C      10.94       7.03      10.41
C       9.59      11.77      11.35
C      10.66       8.41       9.93
C      10.29       9.40      10.86
C      10.02      10.70      10.40
C      10.09      10.99       9.04
C      10.42      10.00       8.09
C      10.71       8.71       8.57
C       0.73       8.11      29.23
C       9.33       5.04       2.61
C      11.37       7.85       1.07
C      10.73       6.62       1.25
C      10.03       6.36       2.44
C       9.95       7.33       3.43
C      10.59       8.59       3.26
C      11.30       8.82       2.07
C       6.39      13.44      10.26
C       6.49      12.01       9.84
C       6.56      11.68       8.48
C       6.66      10.33       8.06
C       6.67       9.32       9.05
C       6.57       9.63      10.42
C       6.50      11.00      10.80
C       6.18       7.02       4.31
C       7.51      11.77       3.38
C       6.45       8.41       4.79
C       6.82       9.40       3.86
C       7.09      10.70       4.31
C       7.02      10.99       5.68
C       6.69      10.00       6.63
C       6.40       8.71       6.15
C       4.98       8.11      14.93
C       7.78       5.04      12.11
C       5.74       7.85      13.65
C       6.38       6.62      13.47
C       7.08       6.36      12.28
C       7.16       7.34      11.28
C       6.53       8.59      11.45
C       5.81       8.82      12.65
O       6.51       2.12       3.19
O       6.16       2.77       5.30
O       6.08      17.67       9.56
O       6.11      18.39      11.66
O       7.48       1.40      10.90
O       7.95      23.07      12.51
O       5.17      18.87      28.29
O       4.21      20.72      29.23
O       8.55      16.48       3.61
O       7.53      15.74       1.72
O      10.59       2.12      11.51
O      10.94       2.76       9.40
O      11.02      17.67       5.16
O      11.00      18.39       3.05
O       9.63       1.40       3.78
O       9.17      23.05       2.20
O       0.55      18.87      15.87
O       1.50      20.72      14.92
O       8.57      16.48      11.11
O       9.58      15.74      13.00
O       0.82       9.46      26.24
O       0.46       8.82      24.14
O       0.33      17.08      19.87
O       0.41      16.36      17.77
O       1.78      10.19      18.51
O       2.24      11.70      16.92
O      10.86      15.89       1.15
O       9.91      14.03       0.20
O       2.85      18.27      25.83
O       1.84      19.01      27.72
O       4.89       9.46      17.91
O       5.25       8.82      20.02
O       5.35      17.08      24.27
O       5.30      16.37      26.38
O       3.93      10.19      25.64
O       3.47      11.70      27.23
O       6.24      15.88      13.57
O       7.20      14.03      14.52
O       2.86      18.27      18.33
O       3.88      19.01      16.44
O       4.90      21.05      26.24
O       5.25      20.40      24.14
O       5.36       5.50      19.88
O       5.30       4.78      17.77
O       3.93      21.77      18.54
O       3.47       0.08      16.93
O       6.24       4.30       1.15
O       7.20       2.45       0.20
O       2.86       6.69      25.83
O       3.88       7.43      27.71
O       0.82      21.04      17.92
O       0.47      20.41      20.03
O       0.31       5.50      24.26
O       0.41       4.80      26.38
O       1.78      21.78      25.65
O       2.24       0.12      27.23
O      10.86       4.30      13.57
O       9.91       2.45      14.52
O       2.85       6.69      18.33
O       1.83       7.43      16.43
O      10.59      13.70       3.19
O      10.95      14.35       5.30
O      11.06       6.09       9.56
O      10.99       6.80      11.66
O       9.63      12.98      10.93
O       9.17      11.47      12.51
O       0.55       7.28      28.29
O       1.50       9.14      29.23
O       8.56       4.89       3.61
O       9.57       4.16       1.72
O       6.52      13.70      11.52
O       6.16      14.35       9.42
O       6.09       6.08       5.17
O       6.11       6.80       3.06
O       7.48      12.98       3.81
O       7.94      11.48       2.21
O       5.17       7.29      15.87
O       4.21       9.14      14.92
O       8.55       4.90      11.11
O       7.53       4.16      13.00
