216

Cd      10.37       3.34      13.09
Cd       8.59      11.97       3.38
Cd       2.32      10.98      15.96
Cd       4.07       4.32       6.31
Cd       2.29      11.96       6.27
Cd       4.07       3.32      15.97
Cd      10.34       4.31       3.40
Cd       8.59      10.97      13.04
H       7.81       5.96       9.84
H       6.18       6.10       7.91
H       4.54       2.42       8.87
H       6.15       2.11      10.80
H       9.98       6.52      12.86
H      11.25       8.62      13.36
H       1.26       6.27      15.87
H      12.52       4.25      15.23
H      11.16       9.37       0.15
H       0.21       9.19      17.58
H       1.87      12.86      18.50
H       0.25      13.22       1.08
H       9.00       8.78       3.18
H       7.74       6.68       3.69
H       5.12       9.03       6.19
H       6.46      11.05       5.54
H       4.90      13.64      19.22
H       6.50      13.77       1.80
H       8.09      10.08       0.83
H       6.51       9.78      18.24
H       2.72      14.16      16.19
H       1.41       0.94      15.69
H      11.42      13.93      13.18
H       0.16      11.91      13.82
H       1.49       1.67       9.53
H      12.47       1.54      11.47
H      10.85       5.24      10.54
H      12.45       5.54       8.60
H       3.65       1.14       6.52
H       4.92      14.35       5.98
H       7.52       1.37       3.49
H       6.22       3.40       4.16
H       4.85       9.33       9.52
H       6.48       9.19      11.44
H       8.13      12.87      10.49
H       6.51      13.18       8.56
H       2.68       8.77       6.50
H       1.42       6.67       6.00
H      11.40       9.03       3.49
H       0.14      11.04       4.13
H       1.50       5.92      19.20
H      12.45       6.11       1.78
H      10.79       2.43       0.85
H      12.42       2.07      18.27
H       3.66       6.51      16.18
H       4.92       8.61      15.67
H       7.54       6.26      13.17
H       6.20       4.24      13.82
H       7.76       1.65       0.14
H       6.17       1.52      17.56
H       4.58       5.21      18.52
H       6.16       5.52       1.11
H       9.95       1.13       3.17
H      11.25      14.35       3.66
H       1.24       1.37       6.17
H      12.50       3.39       5.54
H      11.18      13.62       9.83
H       0.19      13.75       7.88
H       1.81      10.06       8.81
H       0.21       9.76      10.76
H       9.01      14.15      12.84
H       7.74       0.95      13.38
H       5.14      13.92      15.86
H       6.45      11.89      15.19
C       8.14       3.87      11.53
C       7.10       4.02      10.45
C       7.10       5.16       9.64
C       6.20       5.24       8.58
C       5.29       3.17       9.11
C       6.17       3.01      10.18
C      10.85       6.51      13.51
C      11.55       7.68      13.80
C       0.07       7.60      14.64
C       0.42       6.36      15.19
C      12.27       5.24      14.86
C       0.86       8.84      14.97
C      10.83      11.49       1.81
C      11.87      11.32       0.74
C      11.90      10.14      19.30
C       0.19      10.05      18.24
C       1.11      12.12      18.76
C       0.22      12.32       0.47
C       8.13       8.80       3.83
C       7.44       7.63       4.12
C       6.32       7.70       4.96
C       5.97       8.94       5.51
C       6.72      10.06       5.17
C       5.53       6.46       5.30
C       4.54      11.55      17.52
C       5.58      11.69      18.60
C       5.57      12.86       0.06
C       6.47      12.92       1.12
C       7.35      10.84       0.58
C       6.50      10.67      18.87
C       1.85      14.15      15.53
C       1.10      -0.00      15.25
C      12.62      15.26      14.41
C      12.27      14.02      13.86
C       0.42      12.89      14.19
C      11.80       1.18      14.09
C       1.83       3.78       7.86
C       0.80       3.63       8.94
C       0.79       2.48       9.74
C      12.50       2.41      10.81
C      11.60       4.48      10.29
C      12.47       4.64       9.21
C       4.52       1.15       5.86
C       5.24      15.30       5.55
C       6.31       0.04       4.71
C       6.68       1.28       4.17
C       5.95       2.41       4.52
C       7.13      14.11       4.38
C       4.52      11.42       7.83
C       5.56      11.27       8.91
C       5.57      10.13       9.71
C       6.46      10.05      10.77
C       7.37      12.12      10.24
C       6.50      12.28       9.17
C       1.81       8.78       5.85
C       1.11       7.62       5.56
C      12.59       7.69       4.71
C      12.24       8.93       4.16
C       0.40      10.05       4.50
C      11.80       6.45       4.38
C       1.83       3.80      17.54
C       0.79       3.97      18.61
C       0.77       5.16       0.05
C      12.47       5.24       1.12
C      11.55       3.17       0.60
C      12.44       2.97      18.88
C       4.53       6.49      15.53
C       5.23       7.66      15.23
C       6.34       7.59      14.39
C       6.69       6.35      13.85
C       5.95       5.23      14.19
C       7.13       8.84      14.06
C       8.12       3.74       1.83
C       7.08       3.60       0.75
C       7.09       2.43      19.30
C       6.20       2.37      18.23
C       5.31       4.45      18.77
C       6.16       4.62       0.49
C      10.82       1.14       3.82
C      11.56      15.29       4.10
C       0.04       0.04       4.94
C       0.39       1.27       5.50
C      12.24       2.40       5.16
C       0.86      14.11       5.27
C      10.83      11.51      11.49
C      11.87      11.66      10.42
C      11.87      12.81       9.62
C       0.17      12.89       8.55
C       1.07      10.81       9.07
C       0.20      10.65      10.14
C       8.15      14.14      13.50
C       7.42      -0.00      13.80
C       6.35      15.25      14.65
C       5.98      14.02      15.18
C       6.72      12.88      14.83
C       5.53       1.18      14.97
N       5.32       4.26       8.31
N      11.21       5.30      14.01
N       1.08      11.03      17.96
N       7.77      10.00       4.33
N       7.33      11.92       1.39
N       1.49      12.95      15.03
N      11.62       3.39      11.09
N       4.89       2.35       5.37
N       7.35      11.04      11.04
N       1.46       9.99       5.34
N      11.58       4.26       1.40
N       4.89       5.29      15.03
N       5.33       3.37      17.96
N      11.18       2.34       4.33
N       1.04      11.90       8.27
N       7.77      12.94      13.99
O       8.31       2.72      12.04
O       8.83       4.89      11.83
O       0.38       9.97      14.65
O       1.98       8.69      15.60
O      10.63      12.66       2.28
O      10.16      10.46       2.15
O       6.02       5.33       4.98
O       4.42       6.60       5.92
O       4.37      10.40      17.00
O       3.85      12.57      17.22
O      12.28       2.30      14.45
O      10.70       1.06      13.44
O       2.03       4.95       7.38
O       2.50       2.75       7.53
O       6.64      12.99       4.70
O       8.25      14.23       3.76
O       4.35      12.57       7.32
O       3.83      10.40       7.53
O      12.28       5.32       4.70
O      10.69       6.60       3.76
O       2.03       2.64      17.07
O       2.51       4.83      17.20
O       6.64       9.96      14.38
O       8.24       8.70      13.43
O       8.29       4.90       2.35
O       8.81       2.72       2.13
O       0.38      12.99       4.91
O       1.96      14.23       5.92
O      10.63      10.34      11.97
O      10.16      12.54      11.83
O       6.02       2.30      14.65
O       4.41       1.06      15.60
