17

Tb      -0.58       1.91       8.91
O      -2.09       3.44       9.97
C      -2.56      -0.75       9.43
O       1.75       1.59       8.59
O      -2.38       2.40       7.38
O       0.67       4.02       9.42
O       0.16       3.62       7.33
O       1.40       5.37       7.84
C       0.18       0.41      11.31
O      -0.32       0.30       7.25
C       2.54       0.73       8.10
C      -0.19      -0.44       6.21
N      -1.98       3.99      11.16
N      -3.64       2.02       7.49
O      -2.32       0.48       9.65
N       0.77       4.37       8.19
O       0.05       1.67      11.24
