16

O       5.89       7.85       1.40
O       8.95       9.52      -0.61
O       8.29       7.09      -2.46
Tb       7.70       7.41      -0.14
O       8.44       9.07       1.47
C       8.46       5.83      -2.55
O       5.98       5.92      -0.87
C      10.82       6.17       0.67
O       7.92       5.75       1.52
C       5.74       4.69      -0.67
N       4.64       7.47       1.29
O       6.19       8.89      -1.19
C       8.10       5.01       2.55
N       6.30       9.43      -2.39
O      10.02       7.03       0.19
N       9.07       9.83       0.62
