12

C       1.91       6.64      22.32
Co      -0.59       6.06      22.61
N      -0.71       4.47      21.40
N      -0.47       5.57      24.55
C      -3.22       6.56      22.42
C      -1.01       4.44      25.07
O       0.82       7.32      22.09
O       1.87       5.46      22.76
O      -2.12       7.18      22.09
C      -0.07       3.30      21.65
C      -1.54       4.53      20.33
C       0.30       6.34      25.35
