11

Co       7.75       2.02      10.79
C       5.18       2.66      10.71
N       7.51       0.47       9.50
N       7.88       1.43      12.71
O       9.23       3.21      10.27
C       6.48       0.50       8.62
C       8.26      -0.65       9.56
C       7.18       2.08      13.67
C       8.64       0.38      13.07
C      10.32       2.53      10.46
O       6.28       3.26      10.34
