48

Zn       6.22       4.56       5.15
Zn       3.22       4.26       5.46
H       2.43       3.25       1.40
H       0.68       1.76       1.98
H       0.18       2.19       0.32
H       5.94       1.49       2.57
H       5.65       1.55       0.79
H       7.84       8.19       0.50
H       6.40       7.77       1.52
H       7.99       8.09       2.30
H       0.90       5.40       4.29
H       1.07       5.24       0.57
H       1.46       6.71       9.15
H       6.99       6.41       8.25
H       3.22       3.62       9.62
H       2.88       0.22       5.46
H       6.56       8.60       5.14
H       8.54       3.42       6.32
C       4.53       6.93       5.34
C       4.90       1.89       5.27
C       4.97       4.55       7.85
C       6.93       4.33       0.90
C       7.84       5.14       0.21
C       8.54       6.08       9.67
C       7.26       5.89       9.16
C       6.33       5.06       9.84
C       7.63       2.20       1.39
C       6.40       1.31       1.57
C       7.32       8.38       1.47
C       5.56       4.35       0.51
C       4.46       3.98       1.34
C       3.24       3.61       0.79
C       4.14       3.99      10.05
C       5.12       4.61       9.27
C       4.44       8.33       5.36
C       5.00       0.49       5.25
C       4.49       4.22       2.76
N       1.23       4.06       5.66
N       8.21       4.76       4.95
O       5.71       6.45       5.22
O       3.47       6.22       5.45
O       5.64       4.47       3.25
O       3.40       4.25       3.48
O       5.97       2.60       5.16
O       3.73       2.37       5.39
O       6.04       4.57       7.14
O       3.80       4.35       7.36
O       7.41       3.50       1.90
