20

C       9.14      16.76       2.96
C       8.97      17.42       0.68
Cu       6.83      18.29       2.37
Cu       6.99      17.27       4.70
C       6.93      14.72       1.10
Cu       4.96      16.67       1.70
Cu       5.80      15.25       3.64
C       7.97      13.53       2.89
C       4.16      19.11       2.84
C       2.40      17.51       2.68
C       4.33      16.87       5.46
C       5.16      19.02       6.06
N       8.49      17.44       1.97
N       7.00      14.38       2.43
N       3.70      17.88       2.45
N       5.35      17.78       5.51
O       8.70      16.74       4.18
O       6.01      15.52       0.66
O       5.40      19.46       2.69
O       4.49      15.71       4.90
