20

Cu      -2.12      11.54      12.46
Cu      -1.96      12.52      14.82
Cu      -3.16      14.51      13.71
Cu      -4.02      13.14      11.75
C       0.20      13.04      13.09
C       0.04      12.39      10.80
C      -2.04      15.06      11.17
C      -1.00      16.24      12.98
C      -4.81      10.71      12.91
C      -6.57      12.31      12.78
C      -4.63      12.92      15.55
C      -3.78      10.78      16.17
N      -0.45      12.37      12.09
N      -1.97      15.38      12.51
N      -5.27      11.94      12.53
N      -3.60      12.02      15.62
O      -0.24      13.04      14.31
O      -2.96      14.27      10.72
O      -3.57      10.37      12.74
O      -4.49      14.06      14.97
