468

H      -7.85      14.87       6.95
H      -5.73      15.41       5.96
H      -5.91      14.14      10.63
H      -4.93      13.72      38.36
H      -7.07      11.99      33.17
H      -6.63      14.50      33.88
H      -5.75      18.51      41.76
H      -5.30      16.75      46.09
H      -4.60      15.32      47.90
H      -3.84      14.76       9.67
H      -5.00      15.96      34.80
H      -1.85      12.51       2.59
H      -5.33      18.68      40.19
H      -5.34      19.13      43.93
H      -1.48      12.74       4.18
H      -1.82      14.42       0.84
H      -2.37      13.35      48.04
H      -1.55      12.02      49.89
H      -2.92      17.42      39.43
H      -2.59      16.26      36.11
H      -1.39      15.59       4.97
H      -0.72      14.50       8.96
H      -2.31      16.38       8.24
H      -3.04      18.60      35.42
H      -1.01      20.61      40.20
H      -2.17      20.44      44.21
H      -3.48      22.59      37.92
H      -3.45      22.12      39.50
H       0.22      20.91      43.45
H      -1.87      21.66      36.12
H       3.71      17.76      22.56
H       4.23      18.79      26.59
H       2.98      20.72      17.84
H       1.88      21.03      21.86
H       4.19      22.46      22.62
H       4.29      22.89      24.20
H       6.64      18.99      20.27
H       6.21      19.12      21.86
H       0.69      21.43      18.58
H       4.82      22.15      26.31
H       3.41      16.48      25.78
H       5.03      18.12      18.46
H       1.42      14.93       0.19
H       2.35      15.52       4.22
H       2.42      12.79       4.90
H       2.76      12.44       6.47
H       3.24      16.47       0.95
H       1.87      12.29       8.59
H      17.59       6.20      13.85
H      18.58       6.02      17.91
H      19.71       8.25       9.27
H      19.63       9.25      13.32
H      21.99       7.86      14.12
H      22.37       7.88      15.72
H      20.11       4.15      11.58
H      20.08       4.55      13.18
H      19.21      10.54      10.07
H      21.83       7.18      17.85
H      16.26       5.84      17.10
H      18.51       5.17       9.86
H      12.94       8.64      49.11
H      12.44       8.71       0.32
H      13.67       5.95      44.49
H      14.55       5.37      48.53
H      12.16       4.00      49.33
H      12.05       3.63      50.93
H       9.91       7.57      46.84
H      10.25       7.33      48.44
H      15.88       5.18      45.26
H      11.82       5.31       0.23
H      13.41       9.91      52.38
H      11.60       8.48      45.14
H      17.89      11.44      31.47
H      17.49      12.19      35.56
H      15.11      12.39      26.90
H      14.25      11.70      30.93
H      14.27      14.43      31.82
H      14.03      14.67      33.43
H      18.44      14.71      29.31
H      18.10      14.44      30.90
H      13.37      10.77      27.64
H      14.84      14.42      35.57
H      18.83      10.32      34.70
H      18.38      12.87      27.54
H      -1.44      18.42      45.89
H      -1.06      15.54      52.17
H      -1.88      16.86      50.36
H       2.20      19.16      28.21
H      -1.81      22.34      30.48
H      -3.35      22.24      32.35
H      -0.48      20.06      34.55
H       2.60      23.33      28.59
H       1.04      20.16      32.73
H       0.99      23.34      30.37
H       0.66      16.03      10.59
H       5.48      17.82      12.81
H       6.20      19.17      14.68
H       2.90      17.78      16.92
H       4.05      13.54      10.87
H       2.19      16.44      15.09
H       4.90      14.90      12.67
H      17.94       8.03      19.73
H      18.92      13.08      21.88
H      18.08      14.38      23.74
H      17.70      10.84      26.00
H      21.84       9.62      19.86
H      18.53       9.56      24.18
H      21.19      11.07      21.68
H      14.52       8.22       2.15
H      18.35       4.72       4.19
H      19.91       4.74       6.03
H      17.10       6.84       8.37
H      13.89       4.05       2.16
H      15.54       6.82       6.57
H      15.46       3.82       3.98
H      16.06      10.59      37.38
H      11.17       8.94      39.48
H      10.45       7.54      41.31
H      13.70       8.94      43.62
H      12.74      13.19      37.49
H      14.40      10.33      41.82
H      11.79      11.90      39.30
H      17.03       1.93      47.47
H       1.74      26.45      42.16
H       1.12      24.36      41.18
H      -0.35      23.05      44.90
H      15.07       2.93      43.89
H       0.17      25.14      45.86
H      15.65       0.84      42.95
H       9.97      11.39      29.83
H       7.50      12.45      24.51
H       6.00      14.04      23.53
H       5.56      15.93      27.27
H      11.86      12.63      26.28
H       7.10      14.41      28.23
H       9.77      13.19      25.34
H      21.49      13.13      12.27
H      21.57      10.95       8.67
H      23.08      12.51       7.73
H      -0.29      24.72      20.79
H      14.93       0.21      15.59
H      15.17       2.40      14.65
H      17.02       3.72      18.21
H       1.66      23.66      17.22
H      16.81       1.54      19.13
H       1.19      25.79      16.30
H       6.57      15.64       3.18
H       9.23      13.91      50.85
H      11.03      12.63      49.93
H      11.17      11.20       0.60
H       4.72      13.66      52.42
H       9.36      12.45       1.51
H       6.81      13.02      51.51
H      22.33      11.10      32.24
H      20.28      12.05      35.81
H      22.28      12.95      36.73
C      -7.10      14.51       8.91
C      -7.02      14.92       7.56
C      -5.78      15.25       6.97
C      -4.61      15.23       7.75
C      -4.69      14.89       9.11
C      -5.92      14.53       9.68
C      -4.77      14.92      36.63
C      -5.26      15.12      35.33
C      -6.23      14.26      34.80
C      -6.75      13.19      35.56
C      -6.22      12.95      36.86
C      -5.25      13.83      37.39
C      -4.35      16.81      46.44
C      -3.92      15.97      47.48
C      -2.14      13.81      48.93
C      -1.67      13.03      50.00
C      -3.90      19.37      41.50
C      -3.02      17.83      37.37
C      -3.09      16.52      36.93
C      -4.35      19.08      43.91
C      -1.19      15.17       7.02
C      -0.25      13.76       2.90
C      -2.35      15.79       7.43
C      -0.99      13.94       0.57
C      -3.43      17.71      45.86
C      -2.59      16.04      47.96
C      -2.22      15.22      49.05
C      -1.31      13.65      51.22
C      -3.00      18.17      38.73
C      -0.83      15.09       5.67
C      23.17      13.82       9.41
C      -2.94      19.77      40.52
C      -1.71      20.35      40.91
C      -1.42      20.59      42.26
C      -2.38      20.24      43.22
C      -3.59      19.60      42.87
C      -3.10      19.52      39.14
C      -3.20      20.57      38.17
C      -3.15      20.23      36.79
C      -3.09      18.87      36.42
C      -0.29      21.26      42.66
C      -2.70      21.17      35.86
C       3.94      19.84      22.92
C       3.84      18.48      23.28
C       3.93      18.09      24.63
C       4.13      19.08      25.61
C       4.19      20.46      25.27
C       4.11      20.86      23.91
C       3.79      20.14      21.54
C       4.75      19.74      20.56
C       4.44      19.92      19.18
C       3.23      20.59      18.83
C       2.30      21.00      19.80
C       2.57      20.75      21.15
C       1.20      21.72      19.38
C       4.22      21.36      26.32
C       3.98      16.77      25.02
C       5.01      19.09      18.22
C       0.29      14.32       5.26
C      -0.43      14.47       7.97
C       0.72      13.73       7.60
C       1.10      13.64       6.23
C       0.61      14.35       3.88
C       0.03      14.00       1.52
C       1.20      14.74       1.18
C       2.06      15.28       2.15
C       1.74      15.10       3.50
C       3.24      15.86       1.73
C       1.50      13.21       8.62
C      19.56       6.84      14.30
C      18.28       6.33      14.60
C      17.91       6.02      15.92
C      18.86       6.22      16.94
C      20.12       6.81      16.68
C      20.50       7.12      15.33
C      19.78       7.17      12.93
C      19.86       6.16      11.92
C      19.81       6.56      10.56
C      19.78       7.94      10.24
C      19.73       8.93      11.24
C      19.71       8.54      12.59
C      19.76      10.26      10.85
C      20.84       7.28      17.77
C      16.62       5.59      16.21
C      19.33       5.67       9.59
C      12.51       6.61      49.53
C      12.73       7.97      49.85
C      12.70       8.42      51.18
C      12.43       7.48      52.20
C      12.30       6.09      51.92
C      12.32       5.64      50.56
C      12.66       6.27      48.17
C      11.76       6.75      47.17
C      12.14       6.64      45.80
C      13.36       6.00      45.47
C      14.24       5.52      46.45
C      13.89       5.67      47.80
C      15.38       4.85      46.06
C      12.39       6.12       0.14
C      13.02       9.74      51.48
C      11.62       7.53      44.85
C      16.36      12.82      31.95
C      17.43      11.94      32.23
C      17.86      11.71      33.55
C      17.19      12.38      34.59
C      16.05      13.20      34.35
C      15.62      13.44      33.01
C      15.97      12.90      30.59
C      16.82      13.49      29.61
C      16.51      13.29      28.23
C      15.34      12.57      27.89
C      14.49      12.00      28.86
C      14.83      12.15      30.21
C      13.34      11.36      28.45
C      15.26      13.52      35.45
C      18.85      10.78      33.81
C      17.53      13.33      27.27
C      -1.67      16.96      47.39
C      -2.11      17.78      46.33
C      -1.39      15.06      51.32
C      -1.85      15.84      50.26
C       2.54      21.24      28.27
C       2.19      22.45      28.89
C       1.24      22.45      29.92
C       0.64      21.24      30.35
C       1.01      20.01      29.74
C       1.95      20.03      28.68
C      -0.24      21.27      31.44
C      -1.51      21.90      31.36
C      -2.41      21.84      32.44
C      -2.02      21.21      33.64
C      -0.75      20.59      33.72
C       0.13      20.63      32.64
C       2.28      14.67      10.60
C       3.51      14.35      11.20
C       4.01      15.15      12.24
C       3.28      16.27      12.69
C       2.02      16.59      12.11
C       1.55      15.79      11.04
C       3.78      17.00      13.79
C       4.96      17.77      13.70
C       5.39      18.56      14.79
C       4.67      18.53      16.00
C       3.49      17.75      16.08
C       3.05      16.98      15.00
C      19.94       8.70      19.67
C      20.89       9.58      20.23
C      20.49      10.43      21.27
C      19.17      10.40      21.77
C      18.22       9.50      21.22
C      18.62       8.67      20.15
C      18.83      11.21      22.88
C      18.72      12.62      22.77
C      18.23      13.38      23.85
C      17.90      12.74      25.06
C      18.02      11.33      25.16
C      18.49      10.58      24.09
C      14.07       6.15       2.03
C      14.34       4.88       2.56
C      15.27       4.75       3.60
C      15.92       5.89       4.13
C      15.63       7.18       3.61
C      14.71       7.29       2.55
C      16.79       5.74       5.23
C      18.06       5.11       5.09
C      18.97       5.12       6.16
C      18.61       5.71       7.39
C      17.35       6.33       7.52
C      16.44       6.33       6.46
C      14.49      12.01      37.31
C      13.25      12.39      37.86
C      12.69      11.62      38.90
C      13.37      10.48      39.40
C      14.63      10.11      38.86
C      15.16      10.88      37.80
C      12.83       9.78      40.50
C      11.67       8.99      40.37
C      11.25       8.17      41.44
C      11.96       8.18      42.66
C      13.12       8.98      42.77
C      13.54       9.79      41.72
C      16.06       2.63      45.74
C      15.70       2.32      44.42
C      16.04       1.08      43.87
C      16.76       0.12      44.63
C      17.18       0.45      45.95
C      16.81       1.71      46.49
C       1.07      25.99      44.13
C       1.38      25.71      42.77
C       1.02      24.48      42.19
C       0.42      23.48      42.97
C       0.19      23.72      44.35
C       0.50      24.96      44.91
C      11.09      11.90      28.12
C      11.01      12.39      26.80
C       9.77      12.72      26.25
C       8.57      12.58      26.99
C       8.64      12.02      28.30
C       9.91      11.71      28.86
C       7.40      13.23      26.49
C       7.03      13.12      25.12
C       6.14      14.05      24.54
C       5.57      15.07      25.33
C       5.87      15.13      26.70
C       6.79      14.23      27.27
C      21.35      11.95      10.53
C      21.79      11.80       9.20
C      22.69      12.72       8.65
C      22.68      14.01      10.74
C      21.78      13.05      11.29
C       0.67      23.99      19.07
C       1.06      24.30      17.75
C       0.79      25.57      17.21
C       0.12      26.55      17.98
C      -0.34      26.22      19.29
C      -0.04      24.94      19.82
C      15.80       0.67      17.47
C      15.34       0.95      16.16
C      15.49       2.24      15.61
C      16.08       3.27      16.35
C      16.54       3.00      17.66
C      16.41       1.71      18.21
C       5.48      15.22       1.43
C       5.57      14.75       0.11
C       6.80      13.46      52.43
C       7.98      14.43       0.36
C       7.91      14.97       1.68
C       6.65      15.34       2.21
C       9.15      12.88      52.71
C       9.65      13.17      51.42
C      10.71      12.42      50.88
C      11.30      11.37      51.62
C      10.80      11.99       0.06
C       9.73      12.73       0.59
C      23.52      12.51      35.06
C      23.51      11.98      33.75
C      22.32      11.46      33.20
C      21.12      11.45      33.95
C      21.14      11.99      35.26
C      22.32      12.52      35.81
N      -8.29      15.13      11.49
N      -6.70      11.83      37.61
N      -4.18      15.93      37.23
N      -5.08      18.79      41.12
N      -1.32      12.99       3.26
N      -3.43      15.17       7.15
N      -0.66      13.02      52.18
N      -3.73      18.43      44.82
N      -3.34      21.88      38.56
N       4.18      22.18      23.55
N       5.94      19.19      20.93
N       2.19      12.91       5.83
N      21.71       7.69      15.04
N      19.97       4.84      12.26
N      12.19       4.31      50.25
N      10.56       7.31      47.51
N      14.54      14.22      32.73
N      17.91      14.23      29.97
N      -0.33      17.04      47.86
N       0.43      18.79      30.18
N      -2.88      20.93      34.60
N       3.36      21.24      27.26
N       1.27      17.70      12.58
N       4.87      19.39      16.97
N       1.85      13.99       9.58
N      16.89       9.45      21.71
N      17.22      13.34      26.02
N      20.18       7.96      18.62
N      16.27       8.34       4.13
N      19.49       5.96       8.35
N      13.32       6.36       0.98
N      15.34       8.98      39.35
N      11.76       7.27      43.60
N      15.02      12.57      36.27
N      17.93      -0.50      46.70
N      -0.26      22.51      42.38
N      15.40       3.60      46.34
N       7.44      11.84      29.04
N       5.07      16.14      24.74
N      12.26      11.98      28.73
N      20.85      10.88      11.13
N      14.64      -0.02      20.03
N      16.27       4.44      15.73
N       1.26      22.97      19.66
N       9.11      15.09       2.44
N      12.23      10.65      51.01
N       4.30      15.19       2.02
N      20.02      11.03      33.34
O      -8.27      14.99      12.74
O      -8.99      16.13      11.22
O      -6.66      11.94      38.86
O      -6.06      10.80      37.29
O      -0.06      18.18      48.30
O       0.50      16.74      46.97
O       1.31      17.98      30.59
O      -0.22      18.23      29.27
O       0.14      17.36      13.01
O       1.11      18.57      11.68
O      16.60       8.31      22.15
O      16.05       9.75      20.82
O      15.44       9.16       4.60
O      16.96       8.92       3.26
O      16.47       9.29      39.80
O      15.49       8.11      38.45
O      17.77      -0.46      47.95
O      19.15      -0.37      46.45
O       7.53      11.95      30.29
O       6.94      10.72      28.77
O      14.70      -0.12      21.28
O      13.43      -0.05      19.69
O       8.98      15.10       3.69
O       9.71      16.15       2.11
