16

H       1.41       1.37      16.11
H       3.96      -0.98      18.82
H       3.93       0.80      18.94
P       6.57       0.08      17.76
O       1.98       1.36      16.95
P       2.15      -0.08      17.60
C       4.89       0.05      17.12
O       2.06      -1.19      16.56
O       1.16      -0.25      18.75
H       7.31      -1.37      19.25
H       4.77       0.98      16.55
H       4.79      -0.80      16.42
C       3.84      -0.05      18.24
O       6.75      -1.36      18.42
O       6.66       1.19      18.80
O       7.57       0.25      16.61
