16

O       0.38       6.01       9.58
O       0.47       3.46       9.96
O      -0.44       4.40       7.77
H       5.71       3.28       7.27
H       3.17       5.63       9.97
P       0.55       4.57       8.92
H       3.20       3.85      10.10
P       4.98       4.73       8.76
C       2.24       4.60       8.28
O       5.15       3.29       8.11
O       5.06       5.84       7.72
O       5.97       4.90       9.91
H      -0.18       6.02      10.41
H       2.36       3.67       7.71
H       2.33       5.45       7.58
C       3.29       4.70       9.40
