14

O       0.75       1.25      14.61
O       2.12      -0.56      13.43
O       6.78       2.40      11.91
O       6.30       2.25      14.45
O       5.38       4.17      13.12
P       1.72       0.93      13.41
P       5.77       2.67      13.05
C       3.18       1.95      13.70
C       4.29       1.71      12.67
H       2.84       2.99      13.69
H       3.54       1.73      14.72
H       3.97       1.97      11.66
H       4.61       0.66      12.65
O       1.08       1.28      12.06
