14

H       2.69       6.31       3.99
H       2.00       7.57       2.96
H       1.56       7.33       6.02
H       0.92       8.64       5.03
P       3.81       8.37       4.27
P      -0.24       6.63       4.63
O       4.45       8.02       5.62
O       4.78       8.05       3.07
O       3.41       9.86       4.25
O      -1.25       6.90       5.77
O      -0.76       7.04       3.23
O       0.15       5.13       4.56
C       2.35       7.35       3.98
C       1.24       7.59       5.01
