13

H      31.62      15.65      34.46
C      30.85      17.01      35.66
C      32.63      18.74      34.58
C      32.63      17.39      34.16
H      30.26      16.43      36.09
H      33.27      19.34      34.27
H      31.59      20.05      35.67
N      30.84      18.34      35.98
O      34.72      17.52      33.08
C      31.66      19.14      35.45
C      31.68      16.54      34.73
C      33.60      16.90      33.14
O      33.28      15.93      32.45
