13

C       7.41       6.54      31.38
C       8.07       4.37      30.62
H       9.13       3.44      32.03
C       8.65       4.22      31.84
H       6.97       7.35      31.20
C       8.10       3.34      29.48
H       8.91       5.03      33.60
O       8.27       2.15      29.91
H       7.19       5.83      29.51
O       7.93       3.68      28.28
N       7.88       6.35      32.57
C       7.50       5.62      30.36
C       8.53       5.18      32.77
