13

C      20.39       7.48      25.21
O      20.65       8.67      25.45
C      21.50       5.08      22.49
C      21.03       6.88      23.99
H      23.09       7.51      21.67
O      19.64       6.76      25.95
C      21.98       7.62      23.35
C      22.55       6.99      22.22
C      20.71       5.65      23.57
H      21.36       4.21      22.22
H      22.23       8.47      23.63
N      22.39       5.77      21.90
H      20.01       5.17      23.96
