13

C      15.20       9.44      19.65
C      14.14       9.87      20.35
C      14.14      11.13      21.23
O      14.98      12.04      20.90
C      13.10       7.90      19.70
C      15.12       8.22      18.98
C      13.01       9.09      20.38
H      12.25       9.34      20.84
N      14.13       7.47      18.99
H      12.36       7.34      19.74
H      15.86       7.95      18.49
H      15.98       9.94      19.62
O      13.39      11.22      22.18
