13

H      10.21       0.97      33.82
O      13.48      -1.02      33.20
H      13.73       3.13      35.61
C      13.29       1.39      34.54
C      12.35      -0.53      33.25
C      10.80       2.56      34.90
H      14.14       1.04      34.46
C      12.20       0.77      34.01
C      13.02       2.66      35.25
H       9.95       2.92      35.03
C      10.96       1.37      34.20
O      11.26      -0.97      32.74
N      11.81       3.13      35.36
