13

C       9.77      10.67      27.89
N       7.50       7.18      27.10
H       9.09       6.62      26.22
H       7.32      10.06      28.55
C       8.73       7.32      26.70
C       7.00       8.22      27.75
C       8.96       9.49      27.63
H       6.11       8.18      28.02
C       7.71       9.37      28.05
O      10.89      10.78      27.32
H      10.42       8.45      26.65
O       9.28      11.57      28.63
C       9.54       8.43      26.94
