13

O      25.40      16.34       6.08
H      26.48      12.66       6.48
C      25.02      14.27       4.15
C      25.60      14.12       5.37
C      25.14      13.31       3.22
C      26.26      11.95       4.61
H      26.70      11.14       4.79
H      24.54      15.04       3.96
O      25.74      14.81       7.71
C      26.17      12.87       5.63
N      25.79      12.14       3.42
C      25.57      15.15       6.51
H      24.76      13.46       2.39
