13

C      21.33       1.94      25.67
O      26.04       2.62      25.93
H      20.61       1.37      25.56
C      23.71       2.31      25.68
C      22.11       4.06      26.13
H      21.96       4.95      26.32
C      23.39       3.60      25.95
H      24.08       4.21      26.02
C      25.13       1.80      25.61
N      21.12       3.24      26.04
C      22.68       1.46      25.43
O      25.32       0.58      25.31
H      22.84       0.59      25.11
