13

H      10.95       4.77      26.45
H      12.52       6.49      26.46
H      15.33       3.68      27.23
H      13.64       2.09      26.96
C      15.14       6.34      27.09
C      13.43       2.99      26.86
C      11.86       4.56      26.53
C      14.11       5.32      26.91
O      14.74       7.56      26.99
N      12.20       3.30      26.56
O      16.35       6.02      27.35
C      12.79       5.61      26.61
C      14.46       3.94      27.04
