13

H      14.17       9.35      15.69
C      15.39      10.08      14.30
C      16.12      11.24      14.08
O      15.33       9.32      12.05
C      16.19      12.18      15.09
C      14.73      10.07      15.49
H      16.73      12.92      14.93
C      15.24       9.00      13.28
O      15.10       7.85      13.68
H      14.41      11.01      17.20
H      16.56      11.39      13.27
N      15.61      12.14      16.21
C      14.87      11.08      16.39
