13

N       2.83       0.14       0.01
C       1.04      -0.26       1.41
H       0.40      -0.86       1.72
C       0.07       1.59       2.85
H       2.08      -1.56       0.32
O       0.39       2.56       3.55
C       1.99       1.95       1.26
C       2.01      -0.65       0.54
O      -1.05       0.96       2.92
H       2.05       2.84       1.53
C       1.04       1.10       1.83
C       2.82       1.48       0.33
H       3.41       2.06      -0.10
