13

H      18.98      16.35      12.32
H      17.95      15.10      14.13
O      20.65      17.77      11.32
C      20.90      14.81      14.97
C      18.87      15.21      14.10
H      21.41      14.41      15.63
C      19.50      15.98      12.99
N      19.61      14.68      15.01
C      21.59      15.53      13.93
O      22.66      16.94      11.75
H      22.52      15.59      13.92
C      21.44      16.99      11.93
C      20.85      16.13      12.97
