13

H      19.53      17.44       1.53
C      21.47      17.72       1.98
C      21.32      19.02       2.74
N      21.86      15.36       0.63
H      19.94      15.35       0.38
C      20.65      15.83       0.75
H      23.46      17.52       2.17
C      22.71      17.12       1.80
C      22.87      15.93       1.09
O      20.19      19.51       2.79
H      23.72      15.57       0.96
O      22.41      19.46       3.25
C      20.38      17.10       1.45
