13

H      11.19      16.02      14.63
N       9.40      15.38      14.68
H       7.01      17.07      13.49
O       9.35      20.11      12.97
C      10.00      17.61      14.12
H       7.48      15.11      14.52
H      10.68      18.25      14.07
C      10.30      16.26      14.50
C       8.17      15.72      14.37
C       8.45      19.28      13.27
C       8.78      17.93      13.85
O       7.22      19.56      13.12
C       7.86      16.93      13.85
