13

C      23.37       2.23      21.49
C      23.67       0.88      21.87
C      25.22      -0.79      22.72
O      24.32      -1.62      23.02
H      22.99       0.24      21.92
H      26.19       3.38      21.48
C      25.81       1.56      22.14
C      24.89       0.56      22.15
H      26.66       1.41      22.50
N      24.27       3.11      21.31
C      25.50       2.76      21.62
H      22.48       2.47      21.36
O      26.45      -1.07      22.87
