36

H      23.89      14.80       3.99
H      22.55      13.14       2.73
H      24.06      14.74      -0.97
H      19.26      11.76      -3.76
O      17.78      13.86      -1.42
H      17.57      10.32      -4.85
H      18.89       9.41      -0.15
H      17.14       8.04      -1.23
H      16.45       8.52      -3.57
C      22.44      11.68      -0.28
C      22.21      13.04       0.04
C      20.97      13.63      -0.28
C      19.93      12.87      -0.83
C      20.20      11.54      -1.22
C      21.44      10.96      -0.93
C      19.16      10.71      -1.86
C      18.80      10.95      -3.20
C      17.84      10.14      -3.82
C      17.21       9.12      -3.09
C      17.59       8.86      -1.78
C      18.59       9.63      -1.17
C      23.19      13.85       0.79
C      23.99      14.78       0.11
C      24.68      15.77       0.82
C      24.65      15.77       2.22
C      23.91      14.80       2.90
C      23.17      13.85       2.19
O      24.54      11.38       0.93
O      24.11      10.02      -0.82
C      23.78      11.05      -0.08
C      18.55      13.28      -0.51
O      18.14      13.15       0.72
H      20.78      14.66       0.02
H      21.62       9.92      -1.21
H      25.22      16.53       0.29
H      25.20      16.52       2.77
