36

O      18.13      12.17      24.19
C      15.96      12.11      25.18
C      15.26      13.17      24.55
C      13.87      13.09      24.42
C      13.17      11.98      24.93
C      13.89      10.87      25.43
C      15.28      10.96      25.57
C      13.19       9.67      25.91
C      12.38       8.93      25.04
C      11.54       7.94      25.54
C      11.53       7.65      26.91
C      12.39       8.34      27.78
C      13.21       9.35      27.28
C      15.97      14.37      24.07
C      16.10      14.62      22.69
C      16.81      15.74      22.24
C      17.39      16.62      23.16
C      17.25      16.39      24.53
C      16.55      15.27      24.99
O      11.38      11.79      26.50
O      10.89      12.71      24.48
C      11.75      12.13      25.30
O      17.96      11.71      26.44
H      13.32      13.94      24.03
C      17.42      12.14      25.30
H      15.83      10.12      25.99
H      16.91      15.92      21.18
H      17.93      17.48      22.81
H      16.45      15.09      26.05
H      15.64      13.95      21.97
H      12.36       9.16      23.98
H      10.87       7.42      24.88
H      13.82       9.92      27.97
H      12.39       8.11      28.83
H      10.85       6.91      27.31
H      17.69      17.07      25.24
