36

H      25.65       4.73      15.28
H      26.77       8.17      11.87
H      26.26       7.18      19.47
H      24.00       8.15      19.75
H      22.54       8.48      17.77
H      23.36       7.92      15.51
H      27.08       6.56      17.22
H      29.09       5.17      11.59
H      29.91       4.71       9.29
H      25.20       6.12       9.98
H      26.04       5.67       7.70
H      28.40       5.02       7.35
O      25.78       3.13      11.94
C      26.08       7.81      13.88
C      25.77       6.84      14.86
C      25.88       5.48      14.54
C      26.28       5.09      13.25
C      26.62       6.06      12.29
O      27.38       2.97      13.58
C      26.42       3.66      12.96
O      25.13       9.93      13.28
C      26.52       7.42      12.61
C      27.08       5.68      10.94
O      26.59       9.87      15.02
C      28.41       5.27      10.74
C      25.29       7.23      16.20
C      26.10       7.00      17.33
C      25.63       7.35      18.60
C      25.85       9.24      14.14
C      23.53       8.09      17.64
C      24.00       7.76      16.37
C      24.35       7.89      18.76
C      26.22       5.81       9.84
C      28.88       5.02       9.45
C      28.03       5.18       8.35
C      26.70       5.56       8.55
