36

O      19.22      25.14      16.00
O      21.37      25.88      16.04
C      21.01      25.68      20.84
C      20.17      26.65      20.26
C      19.79      26.53      18.91
C      20.30      25.50      18.12
C      21.13      24.52      18.70
C      21.53      24.65      20.04
C      21.46      23.28      17.97
C      22.51      23.26      17.04
C      22.73      22.13      16.25
C      21.95      20.98      16.44
C      20.94      20.97      17.41
C      20.69      22.12      18.16
C      19.72      27.82      21.04
C      20.65      28.75      21.54
C      20.22      29.88      22.24
C      18.85      30.10      22.43
C      17.92      29.18      21.94
C      18.34      28.04      21.25
C      21.02      25.51      22.29
H      19.14      27.28      18.47
H      20.94      30.58      22.63
H      18.52      30.99      22.95
H      16.86      29.36      22.08
H      17.61      27.33      20.88
H      21.71      28.59      21.38
O      21.97      26.10      23.00
O      19.90      25.16      22.86
H      22.16      23.89      20.49
C      20.25      25.64      16.66
H      22.12      20.10      15.83
H      23.15      24.13      16.92
H      19.89      22.12      18.90
H      23.48      22.14      15.48
H      20.35      20.08      17.57
