36

C       6.87      12.65      21.00
C       5.78      13.53      20.80
C       5.05      13.49      19.60
C       5.41      12.61      18.57
C       6.47      11.69      18.78
C       7.21      11.74      19.98
C       6.81      10.65      17.77
C       5.82       9.75      17.32
C       6.13       8.80      16.34
C       7.43       8.71      15.83
C       8.43       9.54      16.34
C       8.13      10.49      17.32
C       5.40      14.52      21.83
C       6.26      15.58      22.15
C       5.81      16.62      22.98
C       4.51      16.61      23.48
C       3.65      15.54      23.18
C       4.10      14.49      22.37
O       8.46      12.93      22.83
O       6.64      11.59      23.13
C       7.35      12.38      22.36
O       4.04      12.11      16.65
O       5.05      14.12      16.77
C       4.93      12.90      17.21
H       4.24      14.19      19.44
H       8.00      11.02      20.16
H       6.48      17.44      23.23
H       4.17      17.41      24.11
H       2.64      15.54      23.56
H       3.43      13.67      22.14
H       7.26      15.62      21.73
H       4.82       9.79      17.73
H       5.36       8.13      15.97
H       8.93      11.08      17.75
H       9.45       9.44      15.98
H       7.66       7.98      15.07
