522

H      14.64      14.88      18.83
H      15.88      15.91      17.05
H      17.29      17.22      15.53
H      18.83      18.65      14.38
H      20.41      19.95      18.08
H      16.95      16.98      21.68
H      16.55      20.38      19.16
H      17.99      23.04      22.11
H      19.70      21.47      22.72
H      20.32      16.02      19.88
H      21.24      19.59      23.07
H      22.57      17.60      23.10
H       6.43      34.85      23.10
H       7.66      32.80      23.12
H       9.06      30.82      22.75
H      10.59      29.10      22.09
H      12.17      31.62      19.09
H       8.74      36.24      19.84
H       8.29      32.37      18.18
H       9.72      33.57      14.39
H      11.45      34.86      15.44
H      12.11      35.17      21.57
H      13.02      36.10      16.87
H      14.36      37.13      18.57
H      23.01      28.62       3.82
H      24.24      29.65       5.60
H       0.58      30.31       7.48
H       2.14      30.59       9.28
H       3.71      26.73       8.57
H       0.23      25.10       4.21
H      24.89      25.57       8.40
H       1.24      21.68       9.22
H       2.96      21.95       7.57
H       3.60      27.13       4.28
H       4.52      22.58       5.78
H       5.85      23.55       4.04
H       2.11      11.20      26.70
H       3.34      10.17      28.48
H       4.75       8.87      30.01
H       6.29       7.45      31.16
H       7.87       6.12      27.47
H       4.41       9.08      23.85
H       3.97       5.70      26.37
H       5.40       3.03      23.42
H       7.14       4.58      22.83
H       7.79      10.04      25.65
H       8.69       6.44      22.48
H      10.03       8.43      22.44
H      18.68      -8.59      22.36
H      19.91      -6.54      22.37
H      21.34      -4.58      22.74
H      22.89      -2.88      23.40
H      24.47      -5.45      26.37
H      20.99     -10.04      25.59
H      20.59      -6.15      27.30
H      22.03      -7.40      31.07
H      23.73      -8.71      30.00
H      24.36      -8.96      23.87
H       0.19      -9.95      28.55
H       1.53     -10.96      26.84
H      10.46      -2.41      41.82
H      11.69      -3.44      40.05
H      13.09      -4.11      38.14
H      14.62      -4.39      36.32
H      16.21      -0.54      37.03
H      12.78       1.11      41.41
H      12.35       0.61      37.21
H      13.78       4.50      36.37
H      15.50       4.24      38.02
H      16.15      -0.92      41.34
H      17.05       3.62      39.82
H      18.39       2.65      41.56
H      23.17      23.62      17.00
H      23.04      21.16      10.42
H      21.67      19.83      11.80
H       0.68      25.20      15.53
H      23.27      26.80      15.33
H      24.53      26.70      14.08
H      24.89      27.43      15.65
H       0.48      23.14      11.52
H      21.25      19.04      14.03
H      14.92      28.79      16.47
H      14.74      24.38      21.93
H      13.40      26.27      22.38
H      17.48      26.68      15.85
H      14.97      25.73      14.58
H      16.22      24.69      15.30
H      16.58      25.66      13.86
H      17.25      24.28      19.65
H      13.02      28.60      21.92
H       6.49      25.86      12.28
H       6.41      32.80      13.36
H       5.02      32.25      11.54
H       9.10      26.35      14.36
H       6.62      25.76      15.87
H       7.90      26.89      16.39
H       8.24      25.16      16.25
H       8.93      30.85      14.53
H       4.57      30.70       9.76
H      10.70       2.50      28.59
H      10.48       4.98      35.15
H       9.11       6.29      33.74
H      13.28       0.95      30.09
H      10.81      -0.68      30.27
H      12.06      -0.56      31.53
H      12.43      -1.30      29.97
H      13.03       3.00      34.08
H       8.72       7.07      31.50
H       2.23      -2.73      28.96
H       2.05       1.78      23.58
H       0.65      -0.07      23.14
H       4.85      -0.70      29.57
H       2.40       0.29      30.91
H       3.66       1.32      30.18
H       4.03       0.31      31.59
H       4.61       1.78      25.83
H       0.23      -2.39      23.55
H      19.03       0.33      33.33
H      18.73      -6.58      32.11
H      17.39      -6.03      33.97
H      21.59      -0.20      31.21
H      19.11       0.50      29.74
H      20.34      -0.65      29.18
H      20.74       1.07      29.35
H      21.29      -4.67      30.94
H      17.04      -4.50      35.79
H       3.56      15.15      24.93
H      23.02      12.83      21.41
H      24.18      11.01      22.43
H       1.78      18.01      24.14
H       4.19      17.32      22.55
H       3.66      18.94      22.99
H       2.69      17.98      21.86
H      24.13      16.28      21.34
H       0.58      10.67      24.64
H      20.46      39.96      19.82
H      14.79      38.11      23.53
H      15.65     -12.20      24.60
H      18.70      37.89      17.71
H      21.02      36.73      19.16
H      20.52      36.35      17.51
H      19.48      35.88      18.86
H      15.93      36.32      20.58
H      17.16     -10.13      23.81
H      11.90      23.17       0.98
H       6.31      27.41       0.76
H       7.46       1.39      43.80
H      10.11      22.43       3.87
H      12.57      24.09       4.03
H      12.02      22.91       5.22
H      11.08      24.39       4.96
H       7.41      25.74       3.78
H       8.94      -0.36      42.39
H      16.07      10.92      20.52
H      10.49      13.21      24.13
H      11.64      15.04      23.11
H      14.29       8.06      21.27
H      16.67       8.70      22.93
H      16.14       7.09      22.44
H      15.15       8.03      23.57
H      11.60       9.76      24.16
H      13.12      15.40      20.88
H       7.53     -13.83      25.69
H       2.00     -11.84      21.84
H       3.45      38.48      20.77
H       5.72     -11.71      27.76
H       8.21     -10.74      26.44
H       7.64     -10.30      28.05
H       6.72      -9.77      26.63
H       3.09     -10.07      24.81
H       4.91      36.36      21.60
H      24.45       3.04      44.65
H      18.84      -1.18      44.86
H      19.99      24.84       1.82
H      22.68       3.84      41.81
H      25.00       2.01      41.50
H      24.50       3.27      40.36
H      23.46       1.85      40.62
H      19.96       0.50      41.85
H      21.48      26.59       3.24
C      19.74      17.96      20.52
C      20.02      18.97      21.45
C      19.11      20.01      21.29
C      18.21      19.68      20.27
C      17.20      20.61      19.90
C      17.13      21.87      20.56
C      18.04      22.16      21.60
C      19.04      21.24      21.97
C      21.06      18.86      22.38
C      21.84      17.69      22.39
C      21.61      16.64      21.46
C      20.53      16.78      20.54
C      17.44      17.38      19.65
C      17.12      17.05      18.33
C      17.98      17.72      17.47
C      18.87      18.50      18.22
C      17.97      17.76      16.06
C      18.88      18.60      15.40
C      19.81      19.39      16.12
C      19.79      19.34      17.54
C      16.70      16.77      20.71
C      15.64      15.88      20.42
C      15.36      15.57      19.06
C      16.09      16.16      18.02
C      18.57      18.36      19.67
C      11.52      34.73      19.58
C      11.80      35.02      18.23
C      10.88      34.36      17.42
C       9.98      33.65      18.22
C       8.95      32.89      17.61
C       8.87      32.82      16.19
C       9.79      33.57      15.41
C      10.80      34.34      16.02
C      12.84      35.88      17.85
C      13.62      36.47      18.85
C      13.40      36.21      20.23
C      12.32      35.34      20.58
C       9.22      34.29      20.52
C       8.91      33.32      21.48
C       9.75      32.23      21.33
C      10.64      32.48      20.28
C       9.74      31.00      22.01
C      10.64      30.00      21.62
C      11.57      30.21      20.57
C      11.55      31.46      19.88
C       8.49      35.51      20.51
C       7.43      35.72      21.43
C       7.15      34.71      22.39
C       7.87      33.50      22.41
C      10.35      33.81      19.66
C       3.02      25.61       5.64
C       3.30      24.30       6.05
C       2.39      23.92       7.03
C       1.49      24.97       7.25
C       0.47      24.81       8.23
C       0.39      23.61       8.99
C       1.30      22.56       8.71
C       2.31      22.71       7.74
C       4.34      23.55       5.48
C       5.12      24.12       4.47
C       4.89      25.45       4.03
C       3.81      26.19       4.61
C       0.72      26.65       5.57
C       0.41      27.96       5.94
C       1.26      28.37       6.96
C       2.15      27.33       7.26
C       1.26      29.57       7.68
C       2.18      29.73       8.73
C       3.12      28.71       9.06
C       3.08      27.50       8.32
C      25.06      26.04       4.52
C      24.00      26.74       3.89
C      23.72      28.07       4.30
C      24.45      28.68       5.33
C       1.85      26.14       6.41
C       7.20       8.09      25.02
C       7.47       7.07      24.10
C       6.56       6.04      24.26
C       5.66       6.38      25.27
C       4.64       5.46      25.63
C       4.55       4.20      24.97
C       5.47       3.91      23.93
C       6.48       4.82      23.58
C       8.52       7.18      23.16
C       9.30       8.35      23.15
C       9.07       9.40      24.07
C       8.00       9.27      25.00
C       4.90       8.69      25.88
C       4.58       9.02      27.20
C       5.43       8.35      28.07
C       6.32       7.57      27.32
C       5.43       8.32      29.47
C       6.34       7.49      30.14
C       7.27       6.69      29.43
C       7.24       6.72      28.01
C       4.17       9.29      24.82
C       3.10      10.19      25.11
C       2.82      10.50      26.46
C       3.55       9.92      27.51
C       6.03       7.70      25.87
C      23.78      -8.55      25.87
C      24.06      -8.85      27.21
C      23.15      -8.19      28.03
C      22.25      -7.47      27.24
C      21.25      -6.69      27.87
C      21.17      -6.63      29.28
C      22.08      -7.40      30.05
C      23.08      -8.18      29.43
C      25.10      -9.72      27.57
C       0.79     -10.30      26.56
C       0.56     -10.02      25.19
C      24.57      -9.15      24.85
C      21.48      -8.08      24.93
C      21.16      -7.09      23.99
C      22.02      -6.01      24.15
C      22.92      -6.28      25.19
C      22.02      -4.78      23.48
C      22.93      -3.79      23.87
C      23.87      -4.02      24.91
C      23.84      -5.27      25.58
C      20.74      -9.29      24.93
C      19.67      -9.48      24.01
C      19.39      -8.46      23.07
C      20.12      -7.26      23.06
C      22.61      -7.61      25.79
C      15.56       0.59      39.97
C      15.83       1.90      39.55
C      14.92       2.28      38.58
C      14.02       1.23      38.36
C      13.01       1.38      37.38
C      12.93       2.57      36.61
C      13.84       3.62      36.88
C      14.84       3.48      37.85
C      16.88       2.65      40.11
C      17.66       2.08      41.13
C      17.43       0.76      41.58
C      16.36       0.02      41.01
C      13.26      -0.45      40.06
C      12.94      -1.76      39.69
C      13.79      -2.17      38.67
C      14.68      -1.14      38.37
C      13.77      -3.38      37.94
C      14.67      -3.53      36.88
C      15.61      -2.52      36.54
C      15.59      -1.31      37.28
C      12.53       0.17      41.11
C      11.46      -0.53      41.74
C      11.18      -1.86      41.34
C      11.91      -2.48      40.31
C      14.39       0.05      39.21
C      23.64      22.56      11.90
C      23.50      22.85      13.29
C      22.68      22.03      14.13
C      22.01      20.90      13.62
C      22.13      20.65      12.23
C      22.93      21.45      11.39
C      23.26      23.42      16.00
C      24.06      24.23      15.17
C      24.34      26.64      15.15
C      24.64      23.13      11.13
C      21.30      19.97      14.38
C      15.34      24.94      19.97
C      15.21      25.98      19.02
C      14.41      27.14      19.29
C      13.75      27.28      20.53
C      13.85      26.21      21.46
C      14.63      25.07      21.19
C      15.00      28.03      17.15
C      15.78      26.89      16.87
C      16.03      25.65      14.81
C      16.33      23.96      19.87
C      13.05      28.42      20.94
C       7.00      30.82      13.85
C       6.85      29.47      13.42
C       6.02      29.13      12.31
C       5.35      30.14      11.58
C       5.48      31.48      12.04
C       6.29      31.81      13.14
C       6.59      26.83      12.60
C       7.40      27.15      13.70
C       7.69      25.99      15.81
C       8.02      31.21      14.72
C       4.62      29.93      10.40
C      11.11       3.59      33.67
C      10.98       3.29      32.29
C      10.16       4.09      31.43
C       9.48       5.22      31.94
C       9.58       5.48      33.33
C      10.38       4.69      34.17
C      10.78       2.70      29.58
C      11.57       1.90      30.43
C      11.87      -0.50      30.46
C      12.11       3.02      34.46
C       8.76       6.14      31.16
C       2.68       1.17      25.52
C       2.54       0.11      26.46
C       1.71      -1.02      26.19
C       1.01      -1.12      24.95
C       1.13      -0.04      24.05
C       1.94       1.08      24.32
C       2.32      -1.96      28.30
C       3.14      -0.85      28.58
C       3.46       0.36      30.66
C       3.70       2.12      25.62
C       0.29      -2.24      24.54
C      19.37      -4.61      31.66
C      19.26      -3.27      32.11
C      18.46      -2.93      33.24
C      17.77      -3.94      33.97
C      17.86      -5.26      33.48
C      18.64      -5.59      32.36
C      19.10      -0.63      32.99
C      19.88      -0.96      31.87
C      20.17       0.24      29.79
C      20.37      -5.01      30.77
C      17.08      -3.73      35.16
C      24.37      14.35      22.02
C       0.49      14.56      22.75
C       1.17      13.47      23.36
C       0.70      12.14      23.23
C      24.59      11.95      22.50
C      23.90      13.02      21.90
C       2.74      15.01      24.34
C       2.09      16.08      23.72
C       3.32      17.93      22.76
C      23.63      15.45      21.54
C       1.22      11.11      24.01
C      16.15      37.87      21.92
C      17.36      38.39      21.38
C      17.75     -12.64      22.02
C      17.27     -12.09      23.24
C      16.07     -12.62      23.76
C      15.67      38.44      23.12
C      19.63      39.53      20.22
C      18.99      38.45      19.60
C      20.16      36.65      18.49
C      15.42      36.91      21.20
C      17.79     -10.89      23.74
C       7.64      26.11       1.77
C       8.84      25.36       1.58
C       9.53      25.38       0.33
C       9.06       0.12      44.38
C       7.87       0.86      44.57
C       7.18      26.89       0.68
C      11.08      23.75       1.16
C      10.43      23.75       2.40
C      11.68      23.62       4.47
C       6.91      25.98       2.95
C       9.58      -0.04      43.09
C      11.83      11.69      23.49
C      13.02      11.49      22.74
C      13.70      12.58      22.13
C      13.24      13.91      22.29
C      12.05      14.10      23.03
C      11.36      13.02      23.62
C      15.25      11.06      21.12
C      14.61       9.97      21.74
C      15.80       8.09      22.69
C      11.09      10.59      23.97
C      13.75      14.95      21.51
C       3.32     -11.64      23.49
C       4.50     -12.19      24.05
C       5.19     -13.26      23.41
C       5.03      38.32      22.18
C       3.85      38.87      21.63
C       2.86     -12.18      22.26
C       6.72     -13.38      25.26
C       6.07     -12.30      25.88
C       7.31     -10.59      27.05
C       2.58     -10.67      24.19
C       5.54      37.13      21.67
C      20.18       0.12      43.86
C      21.38       0.86      44.05
C      22.07      26.90       0.18
C      21.60      26.11       1.25
C      20.40      25.37       1.05
C      19.72      -0.66      44.95
C      23.63       2.46      44.48
C      22.99       2.47      43.23
C      24.14       2.56      41.11
C      19.45       0.25      42.67
C      22.11      26.26       2.54
N      20.62      20.23      15.45
N      22.34      15.53      21.61
N      16.17      22.77      20.32
N      15.02      15.15      21.36
N      12.37      29.21      20.18
N      14.13      36.90      21.12
N       7.89      32.19      15.54
N       6.81      36.90      21.58
N       3.93      28.88      10.11
N       5.62      25.88       2.99
N      24.50      23.37       9.87
N      23.38      26.29       2.79
N       8.08       5.86      30.10
N       9.80      10.52      23.92
N       3.57       3.33      25.20
N       2.49      10.91      24.16
N      24.69      -3.03      25.30
N       1.29     -10.70      24.30
N      20.21      -5.98      29.94
N      19.06     -10.66      23.85
N      16.40      -2.67      35.47
N      18.16       0.33      42.62
N      11.96       2.81      35.73
N      10.85      -0.07      42.84
N      22.62      22.36      15.45
N      24.15      23.90      13.85
N      24.76      25.33      15.70
N      14.36      28.11      18.34
N      15.86      25.92      17.82
N      16.47      26.78      15.65
N       5.94      27.82      11.95
N       7.50      28.46      14.06
N       8.10      26.14      14.40
N      10.11       3.75      30.12
N      11.65       2.24      31.74
N      12.29       0.80      29.90
N       1.65      -2.00      27.12
N       3.22       0.13      27.64
N       3.86      -0.78      29.79
N      18.43      -1.63      33.63
N      19.94      -2.26      31.49
N      20.60       0.05      31.19
N       2.26      13.76      24.14
N       0.99      15.82      22.96
N       2.57      17.40      23.91
N      18.85     -12.12      21.40
N      17.88      37.94      20.20
N      19.48      37.96      18.38
N      10.61      24.56       0.18
N       9.34      24.54       2.55
N      10.90      22.91       3.43
N      14.78      12.30      21.34
N      13.52      10.24      22.51
N      15.08       8.66      21.53
N       6.26     -13.81      24.06
N       4.99     -11.76      25.26
N       6.53     -11.84      27.13
N      23.15      27.71       0.32
N      21.89       1.68      43.08
N      23.46       3.29      42.20
