16

Cu       0.64       0.40       4.61
Cu       0.71       0.03       7.12
I       0.69       2.57       6.16
C       2.37       1.38       2.43
I       0.64      -2.13       5.51
C      -1.94       0.87       8.19
C      -1.03      -0.96       9.28
N      -0.95       0.59       3.37
N       2.31       0.52       3.48
C       3.33      -1.07       8.02
C       2.44       0.53       9.44
N      -0.92      -0.01       8.32
N       2.32      -0.21       8.31
C      -1.11      -0.25       2.32
C      -1.91       1.52       3.58
C       3.39      -0.26       3.71
