16

C       6.15       7.45      17.80
C       7.89       8.28      19.09
Cu       6.79       5.70      20.09
I       4.27       5.74      21.01
Cu       6.45       5.67      22.60
I       8.97       5.69      21.63
C       6.13       2.96      19.18
C       7.77       3.97      17.90
C       7.27       8.31      23.69
C       5.44       7.40      24.76
C       5.34       3.04      23.50
C       6.95       3.93      24.91
N       6.40       7.29      23.81
N       6.21       4.04      23.79
N       6.98       7.30      18.86
N       6.91       4.04      18.94
