11

Ni       3.93       7.41      10.36
C       6.44       8.06      11.77
O       3.48       6.94      12.21
O       4.16       8.39       8.54
C       4.22       9.54       9.11
C       4.24       5.30       8.40
C       3.17       4.53      10.31
C       2.33       6.83      12.80
N       5.87       7.19      10.94
N       3.69       5.56       9.61
C       6.57       6.00      11.06
