11

O      12.59       6.88       7.40
C      12.53       5.73       6.83
Ni      12.83       7.86       5.59
C      12.52       9.97       7.55
C      13.58      10.74       5.64
C      10.19       9.27       4.89
O      13.27       8.33       3.73
C      10.32       7.21       4.17
N      13.07       9.71       6.34
C      14.42       8.44       3.15
N      10.89       8.08       5.01
