11

Ni      11.05      13.89      13.56
O      11.56      14.29      11.70
C       8.90      13.80      14.80
C      13.11      13.39      15.52
C      12.20      11.13      12.86
C      13.99      14.38      13.61
C      10.17      11.45      12.15
O      10.05      13.76      15.38
N      11.08      11.94      12.98
C      11.78      15.42      11.12
N      12.91      13.96      14.31
