450

C      35.90      21.73      15.86
C      36.91      22.63      15.51
C      37.66      22.11      14.47
C      37.15      20.85      14.12
C      37.82      20.11      13.11
C      38.99      20.63      12.49
C      39.41      21.94      12.83
C      38.76      22.68      13.83
C      37.08      23.87      16.16
C      36.16      24.23      17.15
C      35.07      23.39      17.49
C      34.97      22.11      16.87
C      34.70      20.24      14.25
C      34.22      18.97      14.55
C      35.11      18.34      15.42
C      36.14      19.23      15.72
C      35.11      17.02      15.90
C      36.20      16.58      16.67
C      37.27      17.45      17.02
C      37.21      18.79      16.54
C      33.93      21.10      13.44
C      32.65      20.71      12.95
C      32.19      19.41      13.30
C      32.97      18.53      14.07
C      35.97      20.52      14.99
C       6.66      36.53      15.75
C       6.19      35.25      15.44
C       7.04      34.66      14.53
C       8.09      35.54      14.22
C       9.04      35.14      13.25
C       8.92      33.88      12.59
C       7.89      33.00      13.00
C       6.94      33.38      13.95
C       5.03      34.72      16.02
C       4.35      35.48      16.97
C       4.82      36.75      17.38
C       5.96      37.29      16.73
C       9.07      37.17      15.87
C       9.59      38.43      15.54
C       8.88      38.93      14.45
C       7.87      38.02      14.11
C       9.10      40.09      13.68
C       8.32      40.31      12.54
C       7.27      39.43      12.17
C       7.06      38.28      12.99
C       9.59      36.49      16.99
C      10.60      37.07      17.81
C      11.07      38.36      17.45
C      10.60      39.03      16.31
C       7.92      36.81      14.99
C      22.70      12.71       8.55
C      23.71      12.56       9.50
C      24.46      13.72       9.57
C      23.95      14.66       8.66
C      24.62      15.90       8.52
C      25.79      16.18       9.28
C      26.22      15.23      10.24
C      25.57      13.99      10.38
C      23.88      11.39      10.25
C      22.96      10.34      10.06
C      21.87      10.47       9.17
C      21.77      11.65       8.37
C      21.51      14.85       8.06
C      21.02      15.23       6.81
C      21.90      14.79       5.83
C      22.94      14.09       6.45
C      21.91      15.03       4.45
C      23.00      14.58       3.68
C      24.06      13.84       4.25
C      24.01      13.60       5.66
C      20.74      15.13       9.22
C      19.46      15.75       9.12
C      18.99      16.10       7.83
C      19.77      15.86       6.68
C      22.78      14.08       7.93
C      19.85      42.73      21.43
C      19.37      43.63      20.48
C      20.21      44.72      20.42
C      21.27      44.55      21.33
C      22.22      45.60      21.46
C      22.09      46.79      20.70
C      21.05      46.88      19.74
C      20.10      45.86      19.60
C      18.20      43.40      19.74
C      17.52      42.19      19.92
C      18.01      41.20      20.82
C      19.15      41.50      21.61
C      22.26      42.31      21.92
C      22.78      41.98      23.18
C      22.07      42.67      24.15
C      21.06      43.41      23.54
C      22.30      42.76      25.54
C      21.51      43.63      26.31
C      20.46      44.39      25.73
C      20.25      44.26      24.32
C      22.78      41.68      20.77
C      23.79      40.68      20.86
C      24.27      40.36      22.16
C      23.79      41.01      23.31
C      21.11      43.25      22.05
C       9.52      23.56       4.40
C      10.53      22.80       3.80
C      11.28      22.17       4.77
C      10.77      22.49       6.03
C      11.44      22.00       7.18
C      12.61      21.20       7.04
C      13.04      20.84       5.74
C      12.39      21.33       4.60
C      10.70      22.74       2.40
C       9.79      23.42       1.59
C       8.69      24.13       2.15
C       8.59      24.24       3.57
C       8.33      22.92       6.49
C       7.83      23.82       7.44
C       8.72      24.88       7.56
C       9.76      24.70       6.64
C       8.73      25.96       8.46
C       9.82      26.85       8.45
C      10.89      26.72       7.52
C      10.83      25.62       6.61
C       7.56      21.78       6.16
C       6.28      21.55       6.75
C       5.81      22.50       7.69
C       6.59      23.61       8.06
C       9.59      23.41       5.89
C      33.05      34.73      23.95
C      32.59      35.11      25.22
C      33.44      34.61      26.19
C      34.48      33.91      25.58
C      35.44      33.26      26.41
C      35.31      33.32      27.82
C      34.28      34.12      28.39
C      33.33      34.75      27.58
C      31.42      35.87      25.39
C      30.74      36.32      24.26
C      31.21      36.04      22.95
C      32.35      35.19      22.80
C      35.46      34.52      23.34
C      35.97      33.60      22.41
C      35.27      32.41      22.52
C      34.26      32.57      23.48
C      35.49      31.17      21.90
C      34.70      30.06      22.28
C      33.66      30.18      23.23
C      33.45      31.46      23.82
C      35.98      35.83      23.37
C      36.99      36.25      22.45
C      37.46      35.29      21.51
C      36.98      33.97      21.50
C      34.31      33.93      24.09
C      33.08      27.25      22.01
C      32.67      27.88      20.82
C      32.80      27.21      19.57
C      33.34      25.88      19.56
C      32.34      27.92      18.35
C      33.63      25.09      18.40
C      32.86      27.80      23.30
C      -0.02      37.76      21.24
C       0.78      36.83      21.93
C       2.06      36.48      21.44
C       2.53      37.10      20.24
C       2.86      35.49      22.22
C       3.75      36.81      19.53
C      38.32      38.25      21.73
C      11.46      29.65       8.73
C      10.32      30.10       8.04
C       9.57      31.20       8.54
C      10.01      31.84       9.74
C       8.37      31.63       7.77
C       9.35      32.91      10.44
C      12.33      28.64       8.23
C       3.72      20.02       7.97
C       4.44      19.87       9.17
C       3.77      19.77      10.41
C       2.34      19.83      10.42
C       4.59      19.60      11.64
C       1.49      19.85      11.58
C       4.30      19.99       6.68
C       6.68      41.95      10.25
C       6.28      42.67      11.39
C      19.61       6.76      11.44
C      20.14       7.43      10.29
C      19.17       7.46      12.67
C      20.43       8.84      10.18
C       6.46      40.56      10.07
C      13.17      37.36      19.74
C      13.97      37.24      18.59
C      15.26      37.83      18.55
C      15.72      38.56      19.69
C      16.07      37.65      17.31
C      16.94      39.30      19.81
C      11.93      36.69      19.91
C      37.84      14.94      18.96
C      36.70      15.31      19.69
C      35.95      14.33      20.40
C      36.38      12.97      20.35
C      34.75      14.79      21.16
C      22.51      49.15      20.92
C      38.71      15.86      18.33
C      30.09      20.41      11.02
C      30.82      19.47      10.28
C      30.15      18.43       9.58
C      28.72      18.38       9.63
C      30.98      17.47       8.80
C      27.88      17.36       9.07
C      30.67      21.54      11.65
C      19.87      44.79      28.87
C      19.47      43.44      28.92
C      19.61      42.69      30.12
C      20.15      43.34      31.27
C      19.16      41.28      30.11
C       7.26      24.07       0.22
C      19.66      45.64      27.76
C      26.36      38.88      20.16
C      27.17      39.94      20.61
C      28.46      39.69      21.16
C      28.92      38.33      21.22
C      29.26      40.85      21.62
C      30.14      37.86      21.82
C      25.12      39.06      19.49
C      24.64      13.43       1.11
C      23.50      12.61       1.05
C      35.95      31.14      32.17
C      36.40      31.87      31.02
C      34.76      30.25      32.17
C      35.74      31.94      29.74
C      25.51      13.51       2.23
C      16.91      17.58       9.84
C      17.64      18.70       9.38
C      16.97      19.82       8.83
C      15.54      19.81       8.78
C      17.80      20.97       8.37
C      14.69      20.80       8.18
C      17.49      16.48      10.51
H      31.24      19.12      13.07
H      32.59      17.62      14.35
H      34.38      16.36      15.62
H      36.24      15.59      16.91
H      37.98      19.43      16.71
H      34.28      22.05      13.27
H      37.48      19.17      12.87
H       0.64      22.36      12.37
H      39.11      23.61      14.08
H      34.20      21.48      17.11
H      37.83      24.51      15.91
H      36.29      25.13      17.62
H      39.21      17.56      17.46
H      34.22      23.36      19.30
H      -0.34      19.82      10.69
H      32.10      22.58      12.53
H      11.72      38.87      18.05
H      10.93      39.97      16.09
H       9.88      40.71      13.90
H       8.57      41.09      11.94
H       6.35      37.58      12.72
H       9.17      35.59      17.25
H       9.79      35.78      12.98
H       7.80      32.07      12.58
H       6.18      32.74      14.20
H       6.32      38.21      16.99
H       4.69      33.79      15.77
H       3.50      35.08      17.39
H       6.21      38.69      10.64
H       3.66      38.22      18.07
H      10.69      33.25      11.92
H      10.25      35.83      19.34
H      18.05      16.45       7.69
H      19.39      16.08       5.75
H      21.17      15.60       4.01
H      23.03      14.87       2.70
H      24.78      13.12       6.13
H      21.09      14.81      10.12
H      24.29      16.58       7.83
H      27.03      15.42      10.84
H      25.92      13.31      11.06
H      21.00      11.76       7.71
H      24.64      11.28      10.93
H      23.09       9.49      10.61
H      26.01      13.41       4.13
H      21.03       8.92       8.24
H      26.05      18.15       9.47
H      18.92      15.20      10.96
H      24.92      39.58      22.30
H      24.12      40.73      24.24
H      23.08      42.26      25.97
H      21.77      43.76      27.28
H      19.54      44.83      23.85
H      22.36      41.90      19.86
H      22.97      45.51      22.15
H      20.96      47.71      19.14
H      19.34      45.96      18.92
H      19.51      40.81      22.28
H      17.86      44.07      19.05
H      16.68      42.02      19.37
H      19.40      46.08      25.85
H      16.83      39.89      21.75
H      23.86      47.69      20.51
H      23.45      39.98      19.03
H       4.87      22.44       8.07
H       6.21      24.31       8.72
H       8.00      26.05       9.17
H       9.86      27.55       9.19
H      11.60      25.45       5.96
H       7.91      21.15       5.43
H      11.10      22.26       8.11
H      13.85      20.23       5.61
H      12.74      21.08       3.67
H       7.82      24.76       3.99
H      11.46      22.20       1.98
H       9.91      23.37       0.58
H      12.83      27.04       7.20
H       7.83      25.71       1.28
H      12.87      20.06       8.66
H       5.74      20.23       5.35
H      38.10      35.56      20.77
H      37.31      33.31      20.79
H      36.26      31.05      21.24
H      34.96      29.15      21.89
H      32.75      31.58      24.56
H      35.56      36.50      24.02
H      36.18      32.70      25.98
H      34.20      34.22      29.40
H      32.58      35.29      28.01
H      32.70      34.97      21.87
H      31.08      36.12      26.32
H      29.89      36.88      24.39
H      32.61      29.23      24.64
H      30.05      35.89      21.34
H      37.08      33.06      28.71
H      36.65      38.19      22.77
H      32.25      28.81      20.87
H      31.87      28.88      18.57
H      31.60      27.31      17.83
H      33.18      28.11      17.69
H      40.02      36.43      22.81
H       2.38      35.20      23.15
H       3.83      35.93      22.47
H       3.01      34.59      21.62
H      10.05      29.64       7.17
H       8.24      31.07       6.84
H       8.46      32.68       7.50
H       7.47      31.48       8.37
H       5.46      19.79       9.12
H       5.66      19.50      11.43
H       4.28      18.70      12.18
H       4.48      20.47      12.29
H       5.87      42.16      12.18
H       5.52      44.11      13.40
H      18.42       8.22      12.42
H      20.02       7.94      13.16
H      13.63      36.68      17.80
H      15.58      37.01      16.57
H      17.03      37.20      17.56
H      16.23      38.62      16.83
H      36.43      16.30      19.74
H      34.63      15.88      21.15
H      34.85      14.49      22.21
H      33.85      14.36      20.74
H      31.84      19.55      10.24
H      32.04      17.72       8.81
H      30.66      17.45       7.76
H      30.88      16.47       9.23
H      19.06      43.02      28.09
H      18.69      40.99      29.16
H      18.42      41.12      30.90
H      20.01      40.61      30.26
H      26.82      40.90      20.52
H      28.78      41.81      21.41
H      30.23      40.85      21.11
H      29.41      40.79      22.69
H      23.24      12.07       1.88
H      21.44      11.06       0.80
H      34.87      29.49      31.39
H      33.86      30.83      32.00
H      18.66      18.69       9.46
H      18.86      20.83       8.57
H      17.49      21.88       8.87
H      17.69      21.09       7.29
N      38.43      17.01      17.65
N      34.18      23.83      18.45
N       0.12      19.95      11.54
N      31.85      21.66      12.34
N       6.58      39.53      10.97
N       4.13      37.42      18.36
N       9.79      33.46      11.62
N      10.92      36.46      19.01
N      25.22      13.52       3.57
N      20.98       9.43       9.07
N      26.51      17.35       9.17
N      18.67      15.82      10.26
N      19.77      45.38      26.42
N      17.32      40.02      20.92
N      22.95      47.86      20.82
N      24.12      39.95      19.73
N      12.04      27.47       7.59
N       7.81      24.74       1.29
N      13.32      20.72       8.12
N       5.48      20.53       6.24
N      32.98      29.09      23.74
N      30.52      36.55      21.88
N      36.18      32.68      28.68
N      37.32      37.59      22.38
N      33.69      25.36      20.77
N      33.55      25.99      21.91
N       1.69      38.01      19.66
N       0.51      38.32      20.13
N      11.14      31.34      10.31
N      11.83      30.34       9.84
N       1.73      19.97       9.21
N       2.36      20.04       8.07
N      20.48       6.65       9.23
N      20.34       5.35       9.20
N      14.87      38.60      20.76
N      13.69      38.04      20.79
N      37.51      12.72      19.63
N      38.20      13.63      19.00
N      28.11      19.35      10.36
N      28.74      20.31      10.99
N      20.49      44.65      31.13
N      20.35      45.33      30.02
N      28.07      37.38      20.73
N      26.89      37.63      20.23
N      37.52      32.62      31.17
N      38.20      32.72      32.28
N      14.93      18.69       9.27
N      15.56      17.67       9.78
O      33.54      25.65      17.18
O      32.36      26.91      24.20
O       4.50      35.76      19.93
O      38.19      39.60      21.65
O       8.12      33.30      10.03
O      13.65      28.96       8.32
O       2.05      19.95      12.81
O       3.64      19.21       5.79
O      20.33       9.62      11.28
O       5.95      40.23       8.86
O      17.72      39.46      18.71
O      11.79      36.09      21.12
O      21.27      49.32      21.44
O      40.03      15.62      18.56
O      28.45      16.25       8.55
O      30.00      22.70      11.43
O       7.18      22.73       0.33
O      19.14      46.85      28.08
O      30.89      38.74      22.52
O      24.99      38.31      18.37
O      34.50      31.39      29.61
O      26.83      13.43       1.91
O      15.26      21.81       7.47
O      16.83      16.10      11.63
