20

H      -0.22      -0.12      17.76
H       2.28      -0.14      17.76
H       2.13       2.79      14.56
H      -0.36       2.67      14.72
H       4.21      -0.71      16.69
H       6.67      -0.48      16.89
H       6.55       3.50      15.75
H       4.07       3.46      15.51
N      -0.38       1.28      16.25
N       6.70       1.54      16.38
C       0.35       0.50      17.07
C       1.74       0.49      17.05
C       2.43       1.32      16.15
C       1.66       2.12      15.28
C       0.27       2.07      15.37
C       3.90       1.38      16.16
C       4.67       0.26      16.52
C       6.05       0.38      16.62
C       5.98       2.60      15.98
C       4.59       2.57      15.85
