28

C       4.41      -0.17       2.63
C       3.79       0.56       3.64
H       7.36      -3.69      -2.35
H       6.22      -2.40      -0.53
H       6.90       1.25      -2.70
H       8.01      -0.08      -4.54
C       8.38      -2.72      -4.68
C       7.76      -1.95      -3.55
C       7.27      -2.61      -2.41
C       6.64      -1.90      -1.40
C       6.51      -0.50      -1.50
C       7.01       0.17      -2.63
C       7.62      -0.56      -3.64
N       5.89       0.31      -0.52
H       4.05       3.69       2.35
H       5.19       2.40       0.53
H       4.52      -1.25       2.70
H       3.40       0.08       4.54
O       2.83       2.04       5.77
N       5.52      -0.31       0.52
O       8.64      -3.94      -4.54
O       8.58      -2.04      -5.77
O       2.78       3.94       4.54
C       3.03       2.72       4.68
C       3.65       1.95       3.55
C       4.15       2.61       2.41
C       4.77       1.90       1.40
C       4.90       0.50       1.50
