74

Ag       2.51      12.31      12.31
Ag       2.50       4.10       4.10
H       0.56       7.44      11.66
H       2.30       6.46       9.95
H       0.56       0.76      12.96
H       2.30       1.75      14.67
H       0.56       4.75      15.65
H       2.30       6.47      14.67
H       0.56       3.46       8.97
H       2.30       1.74       9.95
H       4.45       8.97       4.75
H       2.71       9.95       6.47
H       4.45      15.65       3.46
H       2.71      14.66       1.74
H       4.45      11.66       0.77
H       2.71       9.95       1.75
H       4.45      12.95       7.44
H       2.71      14.67       6.46
C       0.50       9.25      10.45
C       0.96       7.97      10.80
C       1.84       7.44       9.86
C       2.09       8.30       8.77
C       4.49       9.95      11.09
C       0.50      15.37      14.17
C       0.96       0.24      13.82
C       1.84       0.77      14.76
C       2.09      16.31      15.85
C       4.49      14.66      13.53
C       0.50       5.96       1.04
C       0.96       5.61      16.17
C       1.84       6.55      15.65
C       2.09       7.64       0.10
C       4.49       5.32       1.74
C       0.50       2.24       7.17
C       0.96       2.60       8.45
C       1.84       1.66       8.98
C       2.08       0.57       8.11
C       4.49       2.88       6.46
C       4.51       7.17       5.97
C       4.05       8.45       5.61
C       3.17       8.97       6.55
C       2.92       8.11       7.64
C       0.52       6.46       5.32
C       4.51       1.04       2.24
C       4.05      16.17       2.59
C       3.17      15.64       1.66
C       2.92       0.10       0.57
C       0.52       1.75       2.89
C       4.51      10.45      15.38
C       4.06      10.80       0.24
C       3.17       9.86       0.77
C       2.92       8.77      16.32
C       0.51      11.09      14.67
C       4.51      14.17       9.25
C       4.05      13.81       7.97
C       3.17      14.75       7.44
C       2.93      15.84       8.31
C       0.52      13.53       9.95
S       1.21       9.79       8.96
S       1.21      14.83      15.67
S       1.21       7.46       1.58
S       1.21       0.75       6.62
S       3.80       6.62       7.46
S       3.80       1.58       0.75
S       3.80       8.95      14.83
S       3.80      15.66       9.79
N       3.61      10.44      11.71
N       3.62      14.18      12.91
N       3.61       4.70       2.24
N       3.61       3.50       5.97
N       1.40       5.97       4.70
N       1.39       2.23       3.51
N       1.40      11.71      14.18
N       1.40      12.91      10.45
