66

C      41.81      22.70       9.31
C      41.45      23.91       8.71
C      40.54      24.75       9.35
C      39.96      24.38      10.58
C      40.32      23.15      11.16
C      41.25      22.32      10.53
C      40.20      26.06       8.73
C      42.83      21.81       8.67
H      34.26      28.58      20.23
C      38.74      22.82      14.47
H      35.93      27.23      16.50
H      36.11      23.03      18.07
H      37.61      23.79      18.66
C      37.97      23.49      15.43
H      38.23      21.25      17.99
C      38.96      23.49      13.13
H      35.88      24.61      19.94
H      41.90      15.37      20.20
H      41.33      17.58      16.55
H      39.30      18.80      20.17
C      35.06      28.04      18.29
H      39.46      18.92      15.69
H      40.91      19.81      16.21
O      35.26      29.57      16.50
C      35.66      25.55      19.45
C      34.73      27.81      19.64
C      35.67      27.04      17.54
O      34.11      30.21      18.37
H      39.93      21.09      14.04
O      34.09      27.28      22.25
C      35.05      26.57      20.21
C      34.75      26.36      21.66
C      34.79      29.37      17.67
O      35.20      25.28      22.21
O      36.54      24.90      17.25
C      36.98      23.63      17.77
C      37.78      22.93      16.69
C      38.36      21.69      17.00
O      40.78      15.85      22.36
O      39.64      17.83      22.38
O      43.09      14.49      18.30
O      39.54      19.36      17.72
O      43.03      15.80      16.43
C      40.56      17.06      20.34
C      41.43      16.19      19.67
H      41.88      24.20       7.76
C      41.09      17.45      17.61
H      39.25      25.06      11.05
C      41.70      16.40      18.31
C      39.96      18.12      19.65
C      42.67      15.49      17.63
H      41.55      21.39      11.01
H      38.00      23.62      12.61
C      40.30      16.90      21.80
H      39.41      24.48      13.27
H      37.52      24.45      15.20
C      40.21      18.30      18.28
C      39.82      19.71      16.36
C      39.14      21.02      16.05
C      39.32      21.59      14.78
O      43.22      22.13       7.49
O      43.24      20.81       9.35
O      40.67      26.28       7.56
O      39.50      26.89       9.42
O      39.83      22.66      12.35
C      35.96      25.79      18.11
