174

C       9.84      -7.21      13.98
C       9.58      -7.09      15.37
C       9.73      -5.87      16.07
C       9.95      -4.67      15.34
C       0.11      -4.75      13.93
C       0.13      -6.01      13.29
C       9.84      23.02      13.32
C       0.13      21.82      14.01
C       0.11      20.57      13.37
C       9.94      20.48      11.96
C       9.73      21.69      11.23
C       9.58      22.91      11.93
C       9.83      -0.00      26.57
C       9.58       1.14      25.77
C       9.74       1.14      24.37
C       9.96      -0.10      23.70
C       0.11      -1.27      24.47
C       0.12      -1.20      25.88
C       9.83      15.80       0.72
C       0.13      17.00       1.42
C       0.10      17.08       2.82
C       9.94      15.90       3.60
C       9.72      14.67       2.92
C       9.57      14.66       1.52
C       9.83       7.30      14.03
C       9.57       6.04      13.43
C       9.72       4.83      14.14
C       9.94       4.86      15.55
C       0.10       6.12      16.18
C       0.13       7.30      15.41
C       9.83       8.51      13.26
C       0.13       8.51      11.88
C       0.11       9.69      11.11
C       9.95      10.96      11.74
C       9.74      10.98      13.15
C       9.58       9.77      13.86
C       8.98      20.98       7.10
C       0.27      20.89       7.66
C       1.27      20.32       6.85
C       9.71      19.80       5.16
C       6.99      20.56       8.29
C       9.36      18.97       4.09
C       0.55      21.15       9.02
C       8.99      11.44       5.61
C       0.27      11.98       5.40
C       1.27      11.56       6.30
C       9.72      10.34       7.59
C       6.99      12.68       5.37
C       9.37       9.82       8.84
C       0.55      13.02       4.50
C       8.99      14.92      14.60
C       0.27      14.47      14.25
C       1.28      15.46      14.16
C       9.72      17.19      14.56
C       6.99      14.09      13.65
C       9.37      18.53      14.37
C       0.56      13.17      13.79
C       8.99      -5.17      20.21
C       0.27      -5.07      19.64
C       1.28      -4.50      20.45
C       9.73      -4.00      22.15
C       7.00      -4.76      19.02
C       9.38      -3.18      23.23
C       0.55      -5.33      18.28
C       8.99       4.36      21.69
C       0.27       3.83      21.90
C       1.28       4.25      21.00
C       9.72       5.46      19.70
C       7.00       3.12      21.93
C       9.36       5.97      18.45
C       0.56       2.78      22.80
C       8.98       0.89      12.69
C       0.27       1.34      13.05
C       1.27       0.35      13.13
C       9.72      -1.38      12.73
C       6.99       1.72      13.65
C       9.37      -2.72      12.92
C       0.55       2.64      13.50
H       9.35      -7.92      15.92
H       9.35      23.74      11.38
H       0.12      18.45      11.80
H       9.65      19.17      10.41
H       0.11      -2.63      15.50
H       9.65      -3.36      16.88
H       0.36      -6.02      12.30
H       0.37      21.84      15.00
H       9.35       2.04      26.22
H       9.34      13.77       1.08
H       0.11      16.79       5.45
H       9.64      15.22       5.51
H       0.12      -0.98      21.85
H       9.66       0.59      21.79
H       0.35      -2.06      26.39
H       0.36      17.86       0.91
H       9.34       5.98      12.44
H       9.35       9.84      14.85
H       0.12      12.11      10.06
H       9.66      12.95      11.38
H       0.11       3.70      17.23
H       9.65       2.86      15.91
H       0.36       8.17      15.90
H       0.36       7.64      11.39
H       2.23      20.22       7.18
H       6.50      20.01       7.49
H       6.22      21.10       8.85
H       7.47      19.86       8.97
H       8.38      18.69       4.00
H       1.42      20.77       9.41
H       2.23      11.91       6.23
H       6.50      12.26       6.25
H       6.22      12.89       4.63
H       7.48      13.62       5.64
H       8.39       9.87       9.13
H       1.42      13.55       4.64
H       2.24      15.22      13.90
H       6.51      15.06      13.57
H       6.23      13.34      13.83
H       7.48      13.85      12.70
H       8.38      18.74      14.18
H       1.43      13.02      13.27
H       2.24      -4.39      20.11
H       6.51      -4.20      19.82
H       6.23      -5.29      18.46
H       7.48      -4.05      18.33
H       8.39      -2.91      23.33
H       1.42      -4.95      17.89
H       2.24       3.91      21.07
H       6.50       3.54      21.05
H       6.23       2.90      22.68
H       7.48       2.18      21.66
H       8.38       5.90      18.17
H       1.43       2.26      22.66
H       2.23       0.59      13.39
H       6.50       0.74      13.72
H       6.22       2.47      13.46
H       7.47       1.96      14.59
H       8.39      -2.93      13.11
H       1.42       2.79      14.03
N       9.95      -3.46      15.97
N       9.95      19.27      11.33
N       9.73      21.78       9.88
N       0.30      19.47      14.13
N       0.30      -3.65      13.17
N       9.74      -5.97      17.42
N       9.96      -0.16      22.33
N       9.94      15.96       4.97
N       9.73      13.45       3.52
N       0.29      18.29       3.39
N       0.31      -2.48      23.90
N       9.74       2.36      23.78
N       9.94       3.71      16.28
N       9.95      12.10      11.01
N       9.74      12.11      13.91
N       0.31       9.59       9.78
N       0.29       6.23      17.52
N       9.73       3.70      13.38
N       0.96      19.79       5.64
N       8.74      20.40       5.89
N       0.97      10.78       7.36
N       8.75      10.68       6.71
N       0.97      16.77      14.30
N       8.75      16.25      14.70
N       0.97      -3.97      21.66
N       8.75      -4.60      21.42
N       0.97       5.03      19.93
N       8.75       5.11      20.59
N       0.97      -0.96      12.99
N       8.74      -0.44      12.59
O       7.92      21.52       7.78
O       7.93      11.75       4.79
O       7.93      14.06      14.74
O       7.93      -5.72      19.53
O       7.93       4.05      22.51
O       7.92       1.75      12.55
