51

C       4.66      19.17      36.50
C       5.04      18.55      35.32
C       4.20      18.67      34.20
C       3.00      19.41      34.35
C       2.71      19.99      35.57
C       5.67      17.49      32.53
C      10.49      14.18      24.67
C       9.36      14.43      25.45
C       9.44      15.34      26.52
C      10.66      16.02      26.71
C      11.72      15.72      25.87
C       8.22      16.29      28.50
C       0.74      16.06      24.48
C       1.89      16.14      25.24
C       1.93      15.51      26.51
C       0.79      14.79      26.90
C      -0.31      14.76      26.07
C       3.15      15.60      28.69
C       5.63      16.98      31.14
C       6.85      16.85      30.45
C       6.88      16.32      29.15
C       5.68      15.90      28.55
C       4.46      16.00      29.24
C       4.44      16.54      30.54
O       6.68      17.41      33.25
O       9.18      16.92      28.97
O       2.17      15.30      29.39
H       3.77      18.21      32.25
H       7.55      14.89      27.14
H       3.84      16.15      26.84
H       5.29      19.08      37.39
H       5.96      17.99      35.26
H       2.31      19.53      33.52
H       1.81      20.58      35.70
H      10.44      13.46      23.86
H       8.45      13.87      25.24
H      10.77      16.74      27.51
H      12.67      16.24      26.00
H       0.69      16.55      23.50
H       2.74      16.70      24.88
H       0.76      14.27      27.86
H      -1.20      14.20      26.37
H       7.77      17.18      30.92
H       5.69      15.45      27.55
H       3.49      16.54      31.07
N       3.52      19.89      36.66
N      11.68      14.80      24.87
N      -0.38      15.40      24.87
N       4.48      18.08      32.97
N       8.32      15.53      27.33
N       3.07      15.65      27.28
