51

H      10.84       3.31      16.40
H      13.80       6.24      15.24
H      13.54       7.24      17.50
H       8.30       1.27       4.93
H      10.34       1.72       6.24
H       8.37      -0.05       9.66
H       6.41      -0.45       8.19
H      15.29       3.74      11.74
H      11.11       2.77      12.34
H      13.29       0.98       9.10
O      16.70       2.95       9.88
O      14.00       5.31      13.28
O       9.89       0.92      11.00
C      19.32       0.88       7.44
C      18.22       1.38       8.10
C      17.10       0.54       8.30
C      17.19      -0.77       7.79
C      18.36      -1.19       7.15
C      15.78       2.12       9.73
C      11.37       4.81      17.83
C      11.45       4.19      16.59
C      12.33       4.70      15.62
C      13.09       5.83      15.95
C      12.95       6.38      17.22
C      13.26       4.32      13.31
C       8.34       0.99       5.98
C       9.49       1.24       6.72
C       9.53       0.88       8.08
C       8.40       0.25       8.62
C       7.30       0.04       7.80
C      10.79       1.25      10.22
C      14.47       2.28      10.38
C      14.40       3.18      11.47
N      19.44      -0.39       6.98
C      13.22       3.33      12.20
C      12.08       1.82      10.67
N      15.95       0.95       8.97
C      13.28       1.63       9.97
C      12.06       2.63      11.83
N      12.43       4.03      14.39
N      12.10       5.90      18.16
N      10.67       1.18       8.82
N       7.23       0.41       6.49
H      15.23       0.25       9.06
H      11.90       3.17      14.32
H      11.40       1.66       8.30
H      20.18       1.53       7.26
H      18.20       2.40       8.46
H      16.37      -1.48       7.90
H      18.44      -2.20       6.76
H      10.70       4.43      18.60
