51

C       8.35      26.70       4.36
C       9.51      26.62       3.61
C       9.56      27.24       2.34
C       8.42      27.96       1.93
C       7.31      27.99       2.76
C      10.79      27.14       0.17
C      13.25      25.75      -2.30
C      14.48      25.89      -1.63
C      14.52      26.42      -0.32
C      13.32      26.83       0.29
C      12.09      26.72      -0.39
C      12.07      26.17      -1.69
O      14.29      25.34      -4.41
O      16.85      25.92      -0.19
O       9.82      27.45      -0.54
N      11.12      22.85      -7.82
N      19.28      27.95       3.99
N       7.24      27.36       3.96
N      12.10      24.63      -4.12
N      15.95      27.23       1.50
H      11.40      24.50      -3.39
N      10.71      27.09       1.57
H      15.17      27.84       1.70
H      11.47      26.59       2.02
H      13.58      24.73      -6.41
H      12.89      23.65      -8.54
H       9.92      23.21      -4.67
H       9.41      22.17      -6.86
H      16.06      28.87       3.59
H      18.03      29.27       4.99
H       8.30      26.22       5.34
H      10.36      26.06       3.99
H       8.41      28.47       0.97
H       6.43      28.54       2.44
H      15.40      25.57      -2.10
H      13.33      27.27       1.29
H      11.11      26.16      -2.21
H      20.29      26.53       2.86
H      18.41      26.04       1.31
C      12.27      23.57      -7.66
C      12.65      24.18      -6.48
C      11.81      24.06      -5.35
C      10.61      23.33      -5.51
C      10.32      22.75      -6.73
C      13.29      25.24      -3.69
C      18.08      28.56       4.18
C      16.97      28.32       3.39
C      17.06      27.42       2.31
C      18.29      26.75       2.13
C      19.34      27.04       2.98
C      15.87      26.49       0.31
