51

H      12.63      12.27      54.86
H       0.65      11.96      52.35
H       2.70      11.79      53.73
H       0.71      14.20      56.72
H      -1.25      14.29      55.22
H       7.74      11.30      59.78
H       5.65      13.02      56.41
H       3.45      11.92      59.92
H      10.74      11.77      56.39
C       6.81      11.62      59.31
C       4.40      11.92      59.40
N       3.02      12.82      56.15
C       6.84      12.16      58.01
O       6.63      11.07      62.10
O       9.15      11.61      57.86
O       2.12      13.17      58.27
C       5.64      12.58      57.41
H       1.76       7.90      64.56
C       4.41      12.47      58.10
H       8.39      14.57      54.08
H      10.37      15.00      52.70
C       5.59      11.49      60.00
N       3.48       8.58      65.51
C       4.62       9.29      65.35
C       5.00       9.91      64.17
C       4.15       9.80      63.05
C       2.95       9.07      63.21
C       2.66       8.48      64.43
C       5.63      10.98      61.38
C      10.43      14.28      53.52
C       9.31      14.03      54.30
C       9.39      13.13      55.38
C      10.63      12.48      55.58
C      11.68      12.78      54.73
C       8.19      12.21      57.37
C       0.69      12.44      53.33
C       1.84      12.36      54.10
C       1.88      12.97      55.37
C       0.74      13.70      55.77
C      -0.36      13.73      54.92
C       3.10      12.87      57.56
H       3.72      10.26      61.10
H       7.49      13.56      55.98
H       3.78      12.32      55.71
H       5.26       9.38      66.23
H       5.93      10.46      64.10
H       2.26       8.95      62.38
N      -0.43      13.10      53.72
N       4.43      10.38      61.82
N       8.27      12.94      56.18
N      11.63      13.68      53.72
