51

H       7.34      14.49      37.90
O       8.62      19.65      42.07
O       5.87      17.19      38.73
O      12.67      15.16      39.85
H       4.35      16.63      37.32
H       6.20      12.76      36.75
H       2.38      15.76      36.11
H      11.16      15.92      37.16
H       4.14      12.04      35.60
H      10.59      17.41      43.17
H      11.63      17.56      45.26
H      11.75      18.69      47.46
H       8.97      21.54      46.30
H       8.74      20.53      44.04
H      14.26      15.50      33.78
H       7.28      18.02      40.55
H      11.45      17.05      41.18
H       9.28      15.20      37.96
H      12.22      15.95      35.09
H      16.15      13.80      37.05
H      14.20      14.21      38.52
C       3.24      15.11      36.29
C       4.34      15.61      36.95
C       5.46      14.78      37.16
N       6.61      15.19      37.82
N      10.10      18.30      43.23
C       4.21      13.05      36.00
C      11.10      19.08      46.68
N      11.89      15.43      37.67
C       6.78      16.36      38.58
C       5.37      13.46      36.64
C       9.56      20.66      46.03
C      10.18      18.97      44.45
C      14.22      15.23      34.83
C       9.31      18.63      42.13
C      11.03      18.45      45.44
C       9.43      20.11      44.76
C      13.03      15.13      36.93
C      13.07      15.48      35.57
C      14.17      14.50      37.48
C      11.77      15.49      39.07
C       8.09      16.52      39.23
C       8.16      17.45      40.29
C       9.34      17.62      41.02
C      10.50      16.90      40.67
C      10.48      16.07      39.52
C       9.28      15.87      38.83
C      15.27      14.29      36.66
N       3.12      13.84      35.81
N      10.38      20.18      46.99
N      15.34      14.65      35.35
