51

O       1.48      25.48      38.66
O      -1.19      23.13      42.12
O      -5.31      27.56      39.84
H       0.05      28.22      37.92
H      -3.25      25.31      43.16
H      -3.78      26.84      37.16
H       5.01      26.96      36.13
H       3.03      26.07      37.31
H       1.19      29.95      36.76
H       3.26      30.68      35.64
H      -4.40      24.05      47.46
H      -4.26      25.19      45.26
N       4.27      28.87      35.85
H      -1.61      21.22      46.33
H      -6.86      27.23      33.77
H      -4.83      26.78      35.10
N      -3.03      22.57      47.00
N       0.77      27.51      37.81
N      -7.94      28.10      35.32
H      -4.08      25.68      41.18
H      -1.35      22.22      44.08
N      -2.73      24.44      43.23
H      -6.82      28.56      38.50
H      -1.90      27.52      37.96
H       0.09      24.69      40.54
N      -4.51      27.32      37.67
H      -8.77      28.96      37.01
C       4.15      27.60      36.30
C       3.04      27.09      36.95
C       1.92      27.93      37.15
C       2.01      29.25      36.65
C       3.18      29.66      36.02
C       0.58      26.33      38.55
C      -3.75      23.67      46.68
C      -3.67      24.29      45.44
C      -2.81      23.77      44.46
C      -2.05      22.64      44.79
C      -2.19      22.09      46.05
C      -1.92      24.12      42.14
C      -6.82      27.51      34.82
C      -5.68      27.27      35.57
C      -5.65      27.62      36.93
C      -6.79      28.26      37.46
C      -7.88      28.47      36.63
C      -4.40      27.24      39.07
C      -0.73      26.18      39.21
C      -0.80      25.26      40.28
C      -1.97      25.11      41.02
C      -3.13      25.82      40.66
C      -3.11      26.66      39.52
C      -1.91      26.85      38.82
