20

H      -0.67      10.69       2.37
H      -0.94      12.11      -2.37
C      -0.97      12.35       1.04
C      -1.05      12.76      -0.32
C      -0.73      11.00       1.33
C      -1.03      13.33       2.17
C      -1.39      14.15      -0.79
C      -0.65      10.45      -1.04
C      -0.56      10.04       0.32
C      -0.88      11.80      -1.33
C      -0.58       9.47      -2.17
C      -0.23       8.65       0.79
O      -1.27      12.80       3.33
O      -0.81      14.54       1.99
O      -2.49      14.66      -0.43
O      -0.53      14.66      -1.59
O      -0.35       9.99      -3.33
O      -0.81       8.25      -1.99
O       0.87       8.14       0.43
O      -1.08       8.13       1.59
