20

H       0.26      -1.48       5.30
H      -0.36      -3.01       9.97
C      -0.01      -0.87       7.35
C       0.10      -3.19       6.59
C       0.13      -1.82       6.33
C       0.11       0.57       6.91
C       0.34      -4.16       5.47
C      -0.09      -3.63       7.93
C      -0.20      -1.30       8.68
C      -0.23      -2.67       8.95
C      -0.21      -5.06       8.36
C      -0.44      -0.33       9.80
O       1.11       1.23       7.33
O      -0.77       0.95       6.08
O       0.21      -3.67       4.28
O       0.68      -5.34       5.72
O      -1.21      -5.73       7.95
O       0.67      -5.44       9.19
O      -0.31      -0.83      10.99
O      -0.77       0.85       9.56
