20

H       4.79       3.16       5.88
H       4.84       5.87       1.73
C       3.60       4.95       3.23
C       3.59       4.18       4.41
C       4.80       3.76       4.97
C       6.02       4.07       4.37
C       6.04       4.85       3.20
C       4.83       5.27       2.64
C       2.35       5.45       2.56
C       2.32       3.76       5.11
C       7.29       3.58       5.02
C       7.32       5.29       2.54
O       2.42       5.41       1.28
O       1.40       5.87       3.29
O       2.32       4.05       6.36
O       1.45       3.13       4.44
O       8.25       3.25       4.27
O       7.22       3.56       6.30
O       7.33       5.02       1.28
O       8.18       5.87       3.25
