15

C       6.40       9.93      13.78
H       3.64      11.94      13.90
O       8.15       8.32      13.66
H       5.32      13.41      14.99
H       8.27      10.51      14.65
N       6.85      12.00      14.92
O       6.32       7.98      12.39
C       3.98       9.36      13.10
O       3.72       8.36      13.85
C       6.98       8.65      13.24
C       7.24      10.80      14.46
C       5.05      10.30      13.61
O       3.33       9.66      12.05
C       4.66      11.58      14.03
C       5.58      12.40      14.67
