15

N       0.27       9.11      13.69
H      -2.93       9.17      14.73
H      -1.26       7.70      13.63
O      -0.28      13.14      16.21
O      -3.23      11.41      16.56
O      -2.88      12.74      14.77
H       1.69      10.61      13.94
C      -2.60      11.74      15.51
C       0.38      12.48      15.36
C      -0.19      11.19      14.82
C      -1.53      10.81      15.00
C       0.66      10.32      14.14
C      -1.91       9.53      14.58
C      -0.99       8.71      13.95
O       1.56      12.80      14.96
