15

C       2.50       2.34       3.56
C      -0.76       3.76       4.94
C      -0.48       1.60       3.71
C       0.08       2.88       4.26
C       1.43       3.26       4.08
O       0.18       0.94       2.87
C       1.81       4.55       4.50
C       0.89       5.37       5.13
O       3.13       2.66       2.52
O       2.78       1.34       4.31
N      -0.37       4.97       5.39
O      -1.66       1.27       4.12
H       2.83       4.90       4.35
H       1.16       6.38       5.45
H      -1.79       3.47       5.14
