20

Ca       0.16       4.70       8.69
Ca      -2.89       6.27       7.18
C      -0.96       6.85      10.14
C       2.48       3.32      10.74
C       0.43       2.88      11.66
C       3.29       4.03       9.67
C      -1.77       4.12       5.72
C       1.24       7.65       5.12
C      -3.16       8.09       4.20
C       0.42       6.94       6.19
N       1.16       3.50      10.72
N      -3.89       7.47       5.14
O       0.18       6.53      10.48
O      -1.45       6.59       9.02
O       2.64       4.73       8.84
O      -1.92       3.86       9.71
O      -2.91       4.45       5.38
O      -1.28       4.38       6.84
O       1.07       6.24       7.02
O      -0.81       7.11       6.16
