13

Ni       0.79      -0.51       8.66
C       0.32       2.48       8.71
C       1.94       1.88      10.09
C       3.18      -0.18      10.46
N       1.07       1.38       9.12
N       2.30      -1.02       9.79
N       0.42      -2.40       8.31
N      -0.65       0.01       7.44
C       2.85      -2.29       9.95
C       1.02      -3.51       8.91
C      -0.63      -2.93       7.56
C      -1.38      -0.82       6.61
C      -0.98       1.30       7.03
