12

Zn       3.04       3.06      16.92
O       3.03       3.89      18.70
C       2.74       0.00      17.22
C       2.03       3.49      19.42
C       0.81       4.76      15.69
N       3.40       1.10      16.76
N       0.44       2.60      15.61
N       4.45       0.65      16.04
N       1.35       3.54      15.96
C       5.72       3.96      15.49
N       4.28       5.50      16.04
N       4.48       4.15      16.02
