12

C       7.07       0.00       3.56
Zn       6.76      -3.06       3.87
C       4.09      -3.96       5.29
N       6.41      -1.10       4.02
N       9.37      -2.60       5.18
C       7.77      -3.49       1.36
O       6.77      -3.89       2.08
N       5.35      -0.65       4.75
C       8.99      -4.76       5.09
N       8.45      -3.54       4.82
N       5.52      -5.50       4.74
N       5.32      -4.15       4.77
