26

C       2.56       2.90       2.80
C       1.61       2.30       3.63
C       1.94       1.19       4.39
C       3.21       0.62       4.33
C       4.16       1.24       3.51
O       0.95       4.23       1.73
O       3.10       4.78       1.46
H       0.73       2.67       3.68
H       1.28       0.81       4.96
H       5.04       0.88       3.47
H       4.51       2.78       2.24
H       5.43      -0.18       5.59
H       5.86      -2.15       6.77
H       2.17      -3.53       5.86
H       1.72      -1.55       4.71
O       5.48      -4.36       7.77
O       3.35      -5.01       7.54
C       3.85       2.37       2.77
C       3.51      -0.64       5.05
C       4.76      -0.85       5.66
C       2.56      -1.67       5.13
C       2.18       4.07       1.93
C       4.31      -4.24       7.32
C       5.01      -2.03       6.35
C       4.05      -3.02       6.46
C       2.83      -2.84       5.82
