26

O       7.03       4.23       7.39
O       9.19       4.78       7.66
O      11.57      -4.36       1.35
O       9.43      -5.01       1.59
H       6.82       2.67       5.45
H       7.37       0.81       4.16
H      11.13       0.88       5.66
H      10.60       2.78       6.89
H      11.52      -0.18       3.54
H      11.95      -2.15       2.36
H       8.26      -3.53       3.27
H       7.80      -1.55       4.41
C       8.65       2.90       6.32
C       7.69       2.30       5.49
C       8.02       1.19       4.73
C       9.29       0.62       4.80
C      10.25       1.24       5.61
C       9.93       2.37       6.35
C       9.60      -0.64       4.07
C      10.84      -0.85       3.47
C      11.10      -2.03       2.77
C      10.14      -3.02       2.67
C       8.92      -2.84       3.30
C       8.65      -1.67       3.99
C       8.27       4.07       7.20
C      10.40      -4.24       1.80
