10

O       5.96       6.59       6.32
O       6.36       9.10       6.05
O       4.11       8.25       6.91
O       3.86       6.73       4.15
O       4.39      10.26       3.97
O       2.54       8.98       3.83
C       4.64       7.91       4.31
C       3.79       9.12       4.02
P       5.32       7.94       6.04
H       5.50       7.90       3.62
