11

C       8.57       5.57       2.37
C       7.91       6.87       2.73
P      10.22       5.91       1.46
H       8.81       3.86       3.28
H       8.01       5.01       1.60
O       9.77       6.73       0.25
O      11.07       6.76       2.41
O      10.79       4.54       1.14
O       8.77       4.81       3.54
O       7.70       7.14       3.96
O       7.57       7.70       1.83
