10

O      -1.18       5.90       6.64
O      -0.70       8.41       6.31
O       1.11       6.66       5.76
O       1.34       8.23       8.54
C       0.54       7.07       8.37
C       1.36       5.84       8.67
O       0.74       4.71       8.73
P      -0.11       7.04       6.61
O       2.61       5.94       8.85
H      -0.34       7.10       9.02
