12

H       6.83      10.43       1.71
O      10.12      11.81       2.49
O       9.53       9.84       1.00
O       8.74      12.12       0.31
C       7.47      10.96       2.44
P       9.06      11.29       1.54
C       6.80      12.27       2.82
O       7.68      10.20       3.63
O       6.58      13.18       1.96
O       6.46      12.46       4.03
H      10.23       9.44       1.55
H       7.62       9.24       3.43
