10

H       0.86       1.73       9.08
P       1.04       1.69       6.65
C       2.57       0.51       8.68
C       1.72       1.72       8.38
O       0.40       3.04       6.37
O      -0.00       0.53       6.65
O       2.26       1.38       5.78
O       2.51       2.90       8.54
O       1.98      -0.63       8.72
O       3.82       0.65       8.86
