40

Co      12.35       3.80       9.37
Co      18.73       3.76      12.20
Co      13.11       5.50      16.16
N      12.24       4.54      11.37
N      14.42       4.00       9.85
N      17.00       3.99      11.02
N      17.29       4.46      13.68
N      15.01       5.01      15.27
N      12.54       5.06      14.14
N      12.30       1.95       9.90
N      13.98       5.94      17.92
N      12.81       3.92       7.43
N      20.22       4.28      13.44
N      10.42       4.15       9.04
N      19.90       3.88      10.60
N      18.41       1.92      12.62
N      11.23       5.98      16.68
N      12.85       3.60      16.66
N      13.37       7.14      15.64
C      12.66       2.50      17.07
C      13.45       4.54      11.98
C      14.61       4.26      11.17
C      15.88       4.25      11.75
C      16.04       4.50      13.15
C      14.91       4.77      13.95
C      13.60       4.80      13.35
C      11.33       5.06      13.55
C      11.19       4.80      12.17
C      15.53       3.78       9.13
C      16.81       3.77       9.71
C      17.38       4.69      15.00
C      16.25       4.97      15.79
C      12.21       0.84      10.30
C      14.47       6.59      18.77
C      12.84       3.67       6.27
C      21.04       4.22      14.29
C       9.24       4.01       8.99
C      20.75       3.88       9.79
C      18.14       0.81      12.93
C      10.26       6.60      16.90
