40

Co       7.74       3.81      19.49
Co      14.12       3.83      22.33
Co       8.50       2.10      26.28
N       7.63       3.05      21.50
N       9.81       3.60      19.98
N      12.39       3.61      21.15
N      12.68       3.14      23.80
N      10.40       2.59      25.40
N       7.92       2.54      24.27
N       7.69       5.65      20.03
N       9.37       1.66      28.05
N       8.20       3.71      17.55
N      15.61       3.30      23.57
N       5.80       3.45      19.16
N      15.29       3.72      20.73
N      13.80       5.67      22.75
N       6.62       1.62      26.81
N       8.24       4.01      26.79
N       8.75       0.46      25.76
C       8.04       5.10      27.20
C       8.84       3.06      22.10
C      10.00       3.34      21.30
C      11.27       3.35      21.88
C      11.43       3.10      23.28
C      10.30       2.83      24.07
C       8.99       2.80      23.47
C       6.72       2.54      23.67
C       6.58       2.79      22.30
C      10.92       3.82      19.25
C      12.20       3.82      19.84
C      12.76       2.91      25.12
C      11.63       2.64      25.92
C       7.60       6.76      20.43
C       9.85       1.01      28.90
C       8.23       3.93      16.40
C      16.42       3.37      24.42
C       4.63       3.60      19.12
C      16.14       3.73      19.92
C      13.53       6.78      23.05
C       5.64       1.00      27.03
