17

O      10.98       9.35       9.13
O       6.71       8.58      10.35
Eu       8.56       9.11       8.72
O       7.01       7.52       7.61
O      10.61       5.53       9.76
C       9.36      10.61       6.27
O       8.80      10.82      10.43
C      11.78      10.23       9.57
O       6.78      10.67       8.00
C       8.97      11.53      11.48
N       9.91       6.51       9.47
N       7.15       6.97       6.43
C       6.54      11.91       8.18
O       9.32       7.21      10.36
O       9.73       6.84       8.25
O       9.17       9.35       6.31
N       5.46       8.96      10.20
