17

Eu       5.78       1.95       9.03
O       7.57       0.40       9.74
C       5.38      -0.47       6.27
O       5.03       3.85       7.39
O       4.62       4.22       9.50
O       5.18       1.71      11.44
O       3.37       1.71       8.62
C       7.80      -0.84       9.57
O       7.64       2.48       7.39
O       3.73       5.53       7.98
C       4.99       0.46      11.48
O       7.34       3.54      10.14
N       4.44       4.56       8.28
C       2.56       0.83       8.18
N       8.89       2.11       7.54
N       7.20       4.09      11.32
O       5.54       0.24       7.32
