18

Sr       3.59       1.98      17.65
O       5.28       0.51      18.56
Sr       5.97      -1.49      16.79
C       6.08       0.01      19.43
O       7.11      -0.65      19.09
O       4.75       1.15      15.35
O       2.91       0.01      15.89
O       6.91      -3.72      17.25
C       8.01      -3.64      17.88
O       4.07      -2.62      17.85
O       4.21       3.20      20.08
C       3.72       0.50      15.02
O       4.58       4.20      17.20
O       1.72       3.10      16.54
O       6.55      -2.69      14.37
C       5.67       4.12      16.55
S       4.90       4.36      20.66
S       7.22      -3.86      13.79
