18

Sr       1.17       7.12       5.31
Sr      -1.20      10.58       6.18
C      -1.32       9.09       3.54
O      -2.15      12.82       5.71
O       0.69      11.71       5.12
O       0.55       5.90       2.89
O       0.19       4.90       5.77
O       3.04       6.00       6.42
O      -1.78      11.79       8.59
C       1.04       8.59       7.95
O      -2.35       9.74       3.87
O      -0.52       8.59       4.41
C      -3.25      12.74       5.09
O       0.01       7.95       7.61
O       1.85       9.09       7.08
S      -0.13       4.73       2.30
S      -2.46      12.96       9.18
C      -0.91       4.97       6.42
