32

C       7.11       9.96      16.66
C       8.25      10.53      14.84
C       8.40       9.19      15.10
C       6.89      12.80      17.39
C       6.94      12.35      16.05
C       6.36      13.13      15.01
C       5.71      14.31      15.39
C       5.61      14.72      16.73
C       6.23      13.97      17.76
C       6.22      14.43      19.19
C       6.35      12.68      13.57
C       3.73      15.91      17.85
C       4.99      17.14      16.49
C       3.96      17.90      16.99
H       6.41      10.05      17.48
H       8.66      11.16      14.06
H       9.00       8.45      14.56
H       7.40      12.21      18.15
H       5.23      14.91      14.62
H       5.26      14.21      19.69
H       7.01      13.92      19.76
H       6.37      15.52      19.27
H       6.12      11.61      13.49
H       5.60      13.24      13.00
H       7.32      12.84      13.08
H       3.35      15.05      18.38
H       5.82      17.38      15.84
H       3.74      18.95      16.81
N       3.17      17.13      17.84
N       4.84      15.87      17.04
N       7.42      11.04      15.84
N       7.69       8.84      16.24
