32

N       7.11       6.64      19.16
N       6.48       6.53      21.30
C       7.16       8.67      27.51
C       6.76       8.59      28.82
C       5.69       7.01      27.76
C       6.48       7.40      25.43
C       7.57       6.73      24.85
C       5.36       7.77      24.65
C       4.22       8.54      25.26
H       7.83       9.33      26.99
H       7.06       9.21      29.66
H       5.05       6.18      27.51
H       8.41       6.44      25.48
H       3.80       8.01      26.12
H       3.42       8.70      24.52
H       4.56       9.52      25.63
C       5.79       5.52      20.63
C       6.20       5.60      19.32
C       7.26       7.17      20.38
C       6.47       6.79      22.71
C       5.38       7.45      23.29
C       7.59       6.42      23.49
C       8.73       5.65      22.88
H       5.12       4.86      21.14
H       5.90       4.98      18.48
H       7.90       8.01      20.62
H       4.54       7.75      22.65
H       9.15       6.18      22.02
H       9.53       5.49      23.61
H       8.39       4.67      22.51
N       5.84       7.55      28.98
N       6.47       7.66      26.83
