13

C       9.95       4.06       6.82
C      11.33       4.71       5.32
C       8.69       3.68       7.52
C       8.15       4.77       8.46
N      11.17       4.03       7.38
N      12.06       4.45       6.41
N      10.01       4.49       5.52
H      11.76       5.04       4.39
H       8.88       2.76       8.09
H       7.95       3.44       6.74
H       7.21       4.46       8.92
H       8.87       4.98       9.27
H       7.98       5.71       7.91
