13

H       2.32       0.43       4.39
H       5.22       2.74       8.07
H       6.14       2.07       6.71
H       6.91       1.05       8.87
C       4.14       1.44       6.80
C       2.75       0.77       5.32
C       5.40       1.82       7.49
C       5.96       0.73       8.41
H       6.15      -0.20       7.86
H       5.26       0.51       9.23
N       2.93       1.49       7.36
N       2.03       1.05       6.41
N       4.08       0.99       5.51
