13

H       2.11       3.01      13.80
H       2.98       1.95      14.94
H       4.47       3.01      16.49
H       3.21       3.62      17.55
C       2.98       2.95      14.47
O       4.91       4.15      13.70
O       4.51       2.15      12.79
O       4.54       6.10      16.13
O       5.40       5.08      17.91
C       4.22       3.08      13.59
N       2.89       4.03      15.47
C       3.78       3.86      16.64
C       4.63       5.09      16.91
