13

O      12.75       9.44       0.88
O      10.82       8.77       1.78
O      14.25      10.73      -1.55
O      13.80       9.46      -3.32
C      11.48       9.49       0.98
C      10.74      10.51       0.10
C      11.93      10.27      -2.06
C      13.43      10.15      -2.33
H      10.37      11.29       0.77
H       9.88      10.01      -0.37
H      11.54       9.25      -1.91
H      11.44      10.64      -2.97
N      11.63      11.13      -0.89
