13

O       7.35       2.17      13.70
O       9.29       2.84      12.79
O       5.85       0.88      16.13
O       6.30       2.15      17.90
C       8.63       2.12      13.59
C       9.36       1.11      14.47
C       8.17       1.34      16.64
C       6.68       1.47      16.91
N       8.47       0.48      15.47
H      10.22       1.61      14.94
H       8.56       2.36      16.49
H       8.66       0.97      17.55
H       9.74       0.32      13.80
