468

C       0.08       9.42      14.64
C       0.21      11.58      15.63
C       9.57       9.69      16.98
C       0.09      23.73      71.29
C       0.22      21.57      70.30
C       9.58      23.47      68.95
C       0.56      24.17      14.64
C       0.57      21.90      15.37
C       0.58      23.67      16.97
C       0.57       8.98      71.28
C       0.58      11.25      70.55
C       0.58       9.48      68.95
C       9.70      25.73      56.90
C       9.83      27.89      57.87
C       9.43      26.00      59.25
C       9.71       7.42      29.02
C       9.84       5.26      28.05
C       9.44       7.15      26.67
C       0.47       7.85      56.78
C       0.29       5.62      57.58
C       0.66       7.41      59.11
C       0.48      25.30      29.14
C       0.31      27.53      28.34
C       0.67      25.74      26.81
C       0.14       0.54       5.75
C       0.25       1.79       7.77
C       0.45      32.01       7.83
C       0.16       0.01      80.18
C       0.28      31.36      78.15
C       0.45       1.14      78.09
C       0.25      16.86      48.03
C       0.06      18.00      50.12
C       0.42      15.64      50.08
C       0.26      16.30      37.89
C       0.08      15.15      35.81
C       0.43      17.51      35.84
C       0.52      18.16      15.64
C       0.41      17.20      16.66
C       0.40      15.81      16.42
C       0.51      15.31      15.07
C       0.63      16.29      14.02
C       0.62      17.68      14.32
C       0.27      14.93      17.63
C       0.75      15.91      12.58
C       0.52      19.54      15.97
C       0.50      13.92      14.75
C       0.53      14.99      70.29
C       0.42      15.95      69.26
C       0.41      17.35      69.50
C       0.52      17.84      70.85
C       0.64      16.86      71.90
C       0.63      15.47      71.60
C       0.28      18.22      68.30
C       0.77      17.24      73.35
C       0.53      13.61      69.96
C       0.51      19.23      71.17
C       0.18       1.88      57.88
C       0.14       0.92      58.91
C       0.14      32.13      58.66
C       0.19      31.64      57.31
C       0.24       0.01      56.25
C       0.22       1.40      56.56
C       0.10      31.25      59.87
C       0.29      32.25      54.81
C       0.19       3.26      58.21
C       0.20      30.24      56.98
C       0.19      31.27      28.05
C       0.16      32.23      27.02
C       0.16       1.02      27.26
C       0.21       1.51      28.62
C       0.25       0.53      29.67
C       0.23      31.75      29.37
C       0.11       1.90      26.05
C       0.31       0.90      31.12
C       0.20      29.89      27.71
C       0.21       2.91      28.94
C       0.52       4.42      10.41
C       1.50       4.88      11.32
C       1.29       5.99      12.18
C       9.83       6.58      12.25
C       8.82       6.11      11.35
C       9.13       5.10      10.40
C       2.39       6.39      13.10
C       7.44       6.67      11.29
C       0.76       3.25       9.65
C       9.51       7.39      13.36
C       0.55      28.73      75.52
C       1.53      28.26      74.61
C       1.31      27.15      73.75
C       0.01      26.57      73.68
C       8.84      27.05      74.58
C       9.15      28.06      75.53
C       2.42      26.74      72.84
C       7.45      26.50      74.63
C       0.79      29.90      76.28
C       9.52      25.76      72.57
C       0.54      29.66      10.79
C       0.48      29.87      12.18
C       0.47      28.82      13.13
C       0.55      27.45      12.69
C       0.63      27.22      11.27
C       0.60      28.32      10.36
C       0.35      29.24      14.56
C       0.75      25.89      10.60
C       0.54      30.80       9.94
C       0.55      26.43      13.70
C       0.55       3.49      75.13
C       0.49       3.28      73.74
C       0.48       4.33      72.80
C       0.56       5.70      73.23
C       0.63       5.93      74.65
C       0.60       4.83      75.56
C       0.37       3.91      71.36
C       0.75       7.26      75.33
C       0.54       2.35      75.98
C       0.56       6.72      72.22
C       0.26      20.62      52.78
C       1.24      21.07      53.70
C       1.04      22.20      54.53
C       9.60      22.84      54.56
C       8.59      22.38      53.65
C       8.89      21.34      52.73
C       2.15      22.59      55.46
C       7.23      22.98      53.56
C       0.47      19.43      52.04
C       9.29      23.67      55.66
C       0.27      12.53      33.15
C       1.25      12.06      32.25
C       1.05      10.93      31.41
C       9.61      10.31      31.37
C       8.59      10.79      32.26
C       8.89      11.83      33.19
C       2.17      10.52      30.51
C       7.22      10.20      32.34
C       0.49      13.72      33.89
C       9.29       9.47      30.27
C       0.18      13.00      52.72
C       9.03      12.57      53.62
C       9.20      11.45      54.48
C       0.64      10.80      54.53
C       1.66      11.25      53.64
C       1.39      12.28      52.70
C       8.08      11.07      55.38
C       3.02      10.63      53.58
C       9.82      14.19      51.97
C       0.91       9.97      55.64
C       0.19      20.15      33.21
C       9.03      20.59      32.31
C       9.21      21.71      31.45
C       0.65      22.35      31.39
C       1.67      21.90      32.28
C       1.40      20.87      33.22
C       8.08      22.10      30.55
C       3.03      22.51      32.33
C       9.83      18.97      33.96
C       0.92      23.18      30.28
C       9.17       9.02      20.52
C       8.11       9.17      21.43
C       8.12       8.57      22.71
C       9.26       7.81      23.11
C       0.53       7.67      22.21
C       0.46       8.27      20.93
C       6.93       8.73      23.59
C       1.79       6.94      22.53
C       9.17       9.70      19.31
C       9.26       7.12      24.32
C       9.18      24.14      65.41
C       8.11      23.98      64.50
C       8.12      24.58      63.22
C       9.26      25.34      62.81
C       0.53      25.48      63.71
C       0.46      24.88      64.99
C       6.93      24.42      62.34
C       1.79      26.22      63.39
C       9.18      23.45      66.62
C       9.26      26.03      61.61
C       0.83      24.10      20.57
C       1.91      23.94      21.47
C       1.89      24.50      22.77
C       0.74      25.23      23.21
C       9.47      25.38      22.32
C       9.54      24.82      21.02
C       3.09      24.33      23.64
C       8.21      26.09      22.66
C       0.87      23.49      19.32
C       0.74      25.88      24.44
C       0.83       9.05      65.35
C       1.90       9.21      64.45
C       1.89       8.65      63.15
C       0.74       7.92      62.71
C       9.47       7.77      63.61
C       9.54       8.33      64.91
C       3.09       8.82      62.28
C       8.20       7.06      63.27
C       0.87       9.66      66.60
C       0.74       7.27      61.48
C       0.06       0.51      83.80
C       1.25       0.13      84.46
C       1.30      32.49       1.31
C       0.12       0.04       2.11
C       8.75       0.43       1.46
C       8.75       0.68       0.06
C       2.61      32.11       1.92
C       7.44       0.59       2.16
C       0.05       0.83      82.44
C       0.15      32.32       3.48
C       0.29      16.78      41.53
C       1.48      16.46      42.21
C       1.52      16.25      43.61
C       0.32      16.38      44.39
C       8.94      16.70      43.71
C       8.95      16.92      42.30
C       2.82      15.93      44.25
C       7.62      16.84      44.38
C       0.29      17.09      40.16
C       0.34      16.07      45.76
H       0.34      17.54      17.63
H       0.70      18.36      13.56
H       0.23      15.49      18.57
H       1.14      14.27      17.70
H       9.20      14.34      17.56
H       1.64      15.30      12.43
H       0.83      16.77      11.91
H       9.71      15.34      12.27
H       0.46      19.78      16.96
H       0.59      13.61      13.78
H       0.34      15.61      68.30
H       0.72      14.79      72.36
H       0.24      17.66      67.36
H       1.15      18.88      68.23
H       9.21      18.81      68.36
H       1.66      17.85      73.49
H       0.85      16.38      74.01
H       9.73      17.81      73.66
H       0.47      13.37      68.96
H       0.61      19.54      72.14
H       0.12       1.25      59.87
H       0.25       2.08      55.79
H       0.10      31.80      60.81
H       0.98      30.60      59.89
H       9.04      30.64      59.86
H       1.19      31.66      54.61
H       0.32       0.50      54.14
H       9.25      31.66      54.54
H       0.22       3.51      59.20
H       0.25      29.94      56.01
H       0.12      31.90      26.05
H       0.26      31.07      30.13
H       0.11       1.35      25.11
H       0.99       2.55      26.03
H       9.05       2.51      26.07
H       1.21       1.49      31.31
H       0.34       0.04      31.79
H       9.27       1.49      31.38
H       0.23      29.64      26.72
H       0.27       3.21      29.91
H       2.41       4.41      11.34
H       8.39       4.76       9.77
H       3.31       5.82      12.94
H       2.09       6.25      14.14
H       2.63       7.44      12.94
H       7.29       7.53      11.94
H       6.72       5.90      11.57
H       7.22       7.00      10.27
H       1.51       2.63       9.95
H       8.63       7.21      13.86
H       2.44      28.73      74.60
H       8.41      28.40      76.15
H       3.34      27.30      73.00
H       2.13      26.88      71.80
H       2.65      25.68      73.01
H       7.30      25.64      73.98
H       6.74      27.27      74.35
H       7.22      26.17      75.65
H       1.54      30.52      75.97
H       8.65      25.95      72.07
H       0.43      30.84      12.52
H       0.65      28.15       9.35
H       0.27      30.32      14.70
H       1.24      28.91      15.12
H       9.30      28.80      15.00
H       0.87      25.05      11.26
H       1.63      25.90       9.94
H       9.71      25.71       9.99
H       0.51      31.71      10.42
H       0.54      26.75      14.67
H       0.44       2.31      73.40
H       0.65       5.00      76.57
H       0.29       2.83      71.22
H       1.25       4.24      70.81
H       9.31       4.35      70.91
H       0.87       8.10      74.67
H       1.62       7.26      75.98
H       9.70       7.44      75.94
H       0.51       1.44      75.50
H       0.55       6.41      71.26
H       2.13      20.57      53.74
H       8.15      21.01      52.10
H       3.05      22.00      55.32
H       1.83      22.47      56.50
H       2.41      23.64      55.29
H       7.10      23.85      54.21
H       6.49      22.24      53.84
H       7.04      23.31      52.54
H       1.21      18.80      52.37
H       8.42      23.49      56.17
H       2.15      12.55      32.21
H       8.15      12.17      33.81
H       3.08      11.10      30.65
H       1.86      10.63      29.46
H       2.42       9.47      30.69
H       7.08       9.33      31.70
H       6.49      10.96      32.05
H       7.01       9.89      33.36
H       1.23      14.34      33.57
H       8.43       9.66      29.76
H       8.13      13.07      53.64
H       2.14      12.59      52.07
H       7.18      11.67      55.22
H       8.37      11.20      56.42
H       7.81      10.02      55.21
H       3.14       9.77      54.24
H       3.77      11.38      53.86
H       3.23      10.29      52.56
H       9.08      14.82      52.28
H       1.78      10.12      56.17
H       8.14      20.09      32.29
H       2.15      20.55      33.84
H       7.18      21.50      30.72
H       8.37      21.97      29.51
H       7.82      23.14      30.72
H       3.15      23.37      31.68
H       3.78      21.76      32.05
H       3.25      22.85      33.35
H       9.08      18.34      33.64
H       1.79      23.03      29.76
H       7.30       9.73      21.14
H       1.26       8.19      20.30
H       6.13       9.31      23.12
H       7.22       9.25      24.51
H       6.52       7.75      23.85
H       1.82       6.53      23.54
H       2.64       7.61      22.43
H       1.91       6.10      21.84
H       8.99      10.68      19.34
H       9.26       6.12      24.26
H       7.30      23.42      64.79
H       1.26      24.96      65.63
H       6.13      23.84      62.81
H       7.22      23.90      61.42
H       6.52      25.40      62.08
H       1.81      26.62      62.38
H       2.64      25.55      63.50
H       1.91      27.05      64.08
H       9.00      22.47      66.59
H       9.26      27.03      61.66
H       2.73      23.41      21.16
H       8.74      24.92      20.38
H       3.90      23.79      23.14
H       2.82      23.77      24.54
H       3.48      25.31      23.93
H       8.17      26.46      23.68
H       7.36      25.42      22.53
H       8.08      26.95      21.99
H       1.17      22.54      19.28
H       0.69      26.88      24.43
H       2.73       9.74      64.75
H       8.74       8.23      65.54
H       3.90       9.36      62.77
H       2.82       9.38      61.38
H       3.48       7.84      61.99
H       8.17       6.69      62.24
H       7.36       7.73      63.40
H       8.08       6.20      63.93
H       1.17      10.61      66.64
H       0.68       6.27      61.49
H       2.10       0.04      83.90
H       7.88       0.97      84.15
H       3.42      32.07       1.20
H       2.53      31.13       2.39
H       2.88       0.24       2.69
H       7.48       0.36       3.22
H       6.70      32.53       1.71
H       7.10       1.62       2.05
H       9.83       1.79      82.19
H       0.30      31.37       3.73
H       2.35      16.39      41.67
H       8.08      17.17      41.83
H       3.65      15.90      43.54
H       2.77      14.95      44.74
H       3.06      16.68      45.01
H       7.65      16.64      45.45
H       6.91      16.13      43.94
H       7.23      17.85      44.24
H       0.30      18.05      39.92
H       0.44      15.11      46.01
N       0.30      10.77      14.54
N       9.78      11.02      16.83
N       9.63       8.90      15.87
N       0.20       8.62      13.55
N       9.45       9.13      18.19
N       0.31      12.92      15.64
N       0.32      22.38      71.39
N       9.79      22.13      69.09
N       9.64      24.25      70.06
N       0.22      24.52      72.38
N       9.46      24.02      67.74
N       0.32      20.23      70.28
N       0.57      22.83      14.37
N       0.57      22.34      16.66
N       0.56      24.56      15.95
N       0.56      25.07      13.62
N       0.58      24.11      18.23
N       0.56      20.57      15.08
N       0.58      10.32      71.55
N       0.58      10.81      69.26
N       0.57       8.59      69.97
N       0.56       8.08      72.31
N       0.58       9.04      67.69
N       0.57      12.58      70.84
N       0.06      27.07      56.78
N       9.62      27.34      59.08
N       9.46      25.21      58.14
N       9.81      24.91      55.82
N       9.34      25.45      60.46
N       0.06      29.24      57.88
N       0.07       6.08      29.14
N       9.62       5.81      26.84
N       9.47       7.94      27.78
N       9.82       8.23      30.11
N       9.35       7.70      25.46
N       0.08       3.91      28.04
N       0.26       6.52      56.57
N       0.47       6.09      58.85
N       0.67       8.28      58.06
N       0.40       8.72      55.73
N       0.73       7.89      60.35
N       0.19       4.29      57.32
N       0.27      26.63      29.36
N       0.48      27.06      27.07
N       0.68      24.87      27.86
N       0.41      24.43      30.19
N       0.73      25.26      25.57
N       0.20      28.86      28.60
N       0.08       1.72       6.43
N       0.44       0.62       8.44
N       0.31      31.99       6.47
N       0.08       0.61       4.41
N       0.51      30.86       8.57
N       0.20       2.97       8.44
N       0.11      31.43      79.50
N       0.45      32.53      77.48
N       0.32       1.16      79.45
N       0.12      32.55      81.52
N       0.51       2.29      77.35
N       0.23      30.18      77.49
N       0.03      18.00      48.75
N       0.24      16.81      50.75
N       0.46      15.69      48.71
N       0.24      16.96      46.69
N       0.51      14.46      50.74
N       9.81      19.17      50.80
N       0.05      15.16      37.17
N       0.25      16.34      35.17
N       0.47      17.46      37.21
N       0.26      16.20      39.23
N       0.52      18.70      35.18
N       9.82      13.98      35.12
