472

Zn       2.08       1.63      47.79
Zn       4.28       0.78      37.00
Zn      11.05      11.49      20.77
Zn       8.85      12.35       9.98
Zn       4.93       8.64       7.26
Zn       5.78      10.84      50.52
Zn       8.20       4.48      34.28
Zn       7.34       2.29      23.49
Zn       4.48       8.20      19.76
Zn       2.29       7.34      30.55
Zn       8.64       4.93      46.78
Zn      10.84       5.78       3.53
Zn       1.63       2.08       6.25
Zn       0.78       4.28      17.04
Zn      11.49      11.05      33.27
Zn      12.35       8.85      44.06
B       3.46       6.95      47.13
B       9.67       6.18      20.10
B      12.74      10.02       6.59
B       0.39       3.11      33.61
B       3.11       0.39      20.43
B      10.02      12.74      47.45
B       6.95       3.45       6.92
B       6.18       9.67      33.94
H       0.72       6.96      46.11
H       4.27       9.15      45.40
H       2.20      10.18      43.83
H       3.80       4.07      46.93
H       0.02       4.10      48.80
H       0.85       6.71      48.46
H       6.14       6.33      48.10
H       4.04       6.08      44.43
H       6.56       4.95      44.15
H       4.42      12.56      47.89
H       4.38      13.04      52.08
H       2.67       1.78      50.91
H       4.64       9.59      47.63
H       4.75       8.08      51.55
H       3.43       6.25      49.92
H       4.74       2.57      43.52
H       4.87       2.14      41.04
H       1.67      12.41      41.40
H       1.51      12.89      43.82
H      12.41       6.17      19.09
H       8.86       3.98      18.37
H      10.93       2.95      16.81
H       9.32       9.06      19.90
H      13.10       9.03      21.78
H      12.27       6.42      21.44
H       6.99       6.80      21.08
H       9.09       7.05      17.41
H       6.56       8.18      17.13
H       8.70       0.56      20.87
H       8.75       0.09      25.06
H      10.46      11.34      23.89
H       8.48       3.53      20.60
H       8.38       5.05      24.53
H       9.69       6.88      22.89
H       8.38      10.56      16.49
H       8.26      10.99      14.01
H      11.46       0.71      14.38
H      11.62       0.23      16.80
H      12.73       7.28       5.58
H      10.54      10.83       4.86
H       9.51       8.76       3.30
H       2.50      10.37       6.39
H       2.46       6.58       8.27
H      12.98       7.42       7.93
H       0.23      12.70       7.57
H       0.49      10.60       3.90
H       1.61       0.00       3.62
H       7.13      10.99       7.36
H       6.65      10.94      11.55
H       4.78       9.23      10.38
H      10.10      11.21       7.09
H      11.61      11.31      11.02
H       0.32      10.00       9.38
H       4.00      11.31       2.98
H       4.42      11.43       0.50
H       7.27       8.23       0.87
H       6.79       8.07       3.29
H       0.40       5.85      32.60
H       2.59       2.29      31.89
H       3.62       4.37      30.32
H      10.63       2.76      33.41
H      10.66       6.54      35.29
H       0.15       5.71      34.95
H      12.89       0.42      34.59
H      12.64       2.53      30.92
H      11.51       0.00      30.64
H       6.00       2.14      34.38
H       6.47       2.19      38.57
H       8.35       3.89      37.40
H       3.03       1.92      34.11
H       1.51       1.81      38.04
H      12.81       3.13      36.40
H       9.13       1.82      30.00
H       8.70       1.70      27.53
H       5.85       4.89      27.89
H       6.33       5.05      30.31
H       5.85       0.40      21.45
H       2.29       2.59      22.16
H       4.37       3.62      23.72
H       2.76      10.63      20.63
H       6.54      10.66      18.75
H       5.71       0.15      19.09
H       0.42      12.89      19.45
H       2.53      12.64      23.13
H       0.00      11.51      23.41
H       2.14       6.00      19.66
H       2.19       6.47      15.48
H       3.89       8.34      16.65
H       1.92       3.03      19.93
H       1.81       1.51      16.00
H       3.13      12.81      17.64
H       1.82       9.13      24.04
H       1.70       8.70      26.52
H       4.89       5.85      26.16
H       5.05       6.33      23.73
H       7.28      12.73      48.47
H      10.83      10.54      49.18
H       8.76       9.51      50.75
H      10.37       2.50      47.65
H       6.58       2.46      45.77
H       7.42      12.98      46.11
H      12.70       0.23      46.47
H      10.60       0.49      50.15
H       0.00       1.61      50.43
H      10.99       7.13      46.68
H      10.94       6.65      42.50
H       9.23       4.78      43.67
H      11.21      10.10      46.95
H      11.31      11.61      43.02
H      10.00       0.31      44.66
H      11.31       4.00      51.06
H      11.43       4.42      53.54
H       8.23       7.27      53.18
H       8.07       6.79      50.75
H       6.96       0.72       7.94
H       9.15       4.27       8.65
H      10.18       2.20      10.21
H       4.07       3.80       7.12
H       4.10       0.02       5.24
H       6.71       0.85       5.58
H       6.33       6.14       5.94
H       6.08       4.04       9.62
H       4.95       6.56       9.90
H      12.56       4.42       6.15
H      13.04       4.38       1.97
H       1.78       2.67       3.14
H       9.59       4.64       6.42
H       8.08       4.75       2.49
H       6.25       3.43       4.13
H       2.57       4.74      10.53
H       2.14       4.86      13.01
H      12.41       1.67      12.64
H      12.90       1.51      10.22
H       6.17      12.41      34.96
H       3.98       8.85      35.67
H       2.95      10.93      37.23
H       9.06       9.32      34.14
H       9.03      13.10      32.26
H       6.42      12.27      32.60
H       6.80       6.99      32.96
H       7.05       9.09      36.64
H       8.18       6.56      36.92
H       0.56       8.70      33.17
H       0.09       8.75      28.99
H      11.34      10.46      30.16
H       3.53       8.48      33.44
H       5.05       8.38      29.51
H       6.88       9.69      31.15
H      10.56       8.38      37.55
H      10.99       8.26      40.03
H       0.71      11.46      39.67
H       0.23      11.62      37.24
C       1.39       7.72      45.73
C       3.22       8.88      45.35
C       2.21       9.38      44.57
C       2.91       4.44      47.40
C       0.95       4.48      48.39
C       1.34       5.78      48.19
C       5.91       6.12      47.07
C       4.85       5.96      45.14
C       6.10       5.41      45.01
C       4.19      12.94      48.88
C       4.14       0.10      51.04
C       3.29       1.02      50.46
C       4.50       8.94      48.48
C       4.52       8.11      50.50
C       3.88       7.21      49.69
C       3.09       1.46      45.30
C       3.13       1.19      43.83
C       4.08       1.86      43.03
C       4.14       1.62      41.66
C       3.28       0.69      41.06
C       2.33       0.02      41.85
C       2.26       0.28      43.22
C       3.35       0.42      39.58
C      11.74       5.41      18.71
C       9.90       4.24      18.33
C      10.92       3.74      17.54
C      10.22       8.68      20.38
C      12.18       8.65      21.36
C      11.79       7.34      21.17
C       7.21       7.01      20.04
C       8.28       7.16      18.11
C       7.03       7.72      17.99
C       8.94       0.18      21.86
C       8.99      13.02      24.02
C       9.84      12.11      23.44
C       8.63       4.19      21.45
C       8.61       5.01      23.47
C       9.25       5.92      22.67
C      10.04      11.67      18.28
C       9.99      11.94      16.80
C       9.05      11.27      16.01
C       8.98      11.50      14.64
C       9.84      12.44      14.04
C      10.79      13.10      14.83
C      10.87      12.85      16.20
C       9.77      12.70      12.56
C      11.97       7.95       5.20
C      10.80       9.79       4.82
C      10.31       8.77       4.03
C       2.12       9.47       6.87
C       2.08       7.51       7.85
C       0.78       7.90       7.66
C       0.45      12.48       6.53
C       0.60      11.41       4.60
C       1.15      12.66       4.48
C       6.75      10.75       8.35
C       6.46      10.70      10.51
C       5.54       9.85       9.93
C      10.75      11.06       7.94
C      11.57      11.08       9.96
C      12.48      10.44       9.16
C       5.10       9.65       4.77
C       5.37       9.70       3.29
C       4.71      10.64       2.50
C       4.94      10.71       1.13
C       5.87       9.84       0.52
C       6.54       8.90       1.32
C       6.29       8.82       2.68
C       6.14       9.92      53.09
C       1.16       5.17      32.22
C       2.32       3.34      31.84
C       2.82       4.35      31.05
C      11.00       3.66      33.89
C      11.04       5.61      34.88
C      12.34       5.23      34.68
C      12.68       0.65      33.55
C      12.53       1.72      31.62
C      11.97       0.47      31.50
C       6.38       2.37      35.37
C       6.67       2.43      37.53
C       7.58       3.27      36.95
C       2.38       2.07      34.97
C       1.55       2.04      36.99
C       0.64       2.68      36.18
C       8.02       3.47      31.79
C       7.75       3.43      30.32
C       8.42       2.48      29.52
C       8.18       2.42      28.15
C       7.25       3.28      27.55
C       6.59       4.23      28.34
C       6.84       4.31      29.71
C       6.99       3.21      26.07
C       5.17       1.16      21.82
C       3.34       2.32      22.21
C       4.36       2.82      22.99
C       3.66      11.00      20.15
C       5.61      11.04      19.17
C       5.23      12.34      19.36
C       0.65      12.68      20.49
C       1.72      12.53      22.42
C       0.47      11.97      22.55
C       2.37       6.38      18.68
C       2.43       6.67      16.51
C       3.27       7.58      17.10
C       2.07       2.38      19.08
C       2.04       1.55      17.06
C       2.68       0.64      17.86
C       3.48       8.02      22.26
C       3.43       7.75      23.73
C       2.48       8.42      24.52
C       2.42       8.18      25.89
C       3.28       7.25      26.50
C       4.23       6.59      25.71
C       4.31       6.84      24.34
C       3.21       6.98      27.97
C       7.95      11.97      48.85
C       9.79      10.80      49.23
C       8.77      10.31      50.01
C       9.47       2.12      47.17
C       7.51       2.08      46.19
C       7.90       0.78      46.38
C      12.48       0.45      47.51
C      11.41       0.60      49.44
C      12.66       1.15      49.57
C      10.75       6.75      45.70
C      10.70       6.46      43.53
C       9.85       5.54      44.12
C      11.06      10.75      46.10
C      11.08      11.57      44.08
C      10.44      12.48      44.88
C       9.65       5.10      49.28
C       9.70       5.37      50.75
C      10.64       4.71      51.55
C      10.71       4.94      52.92
C       9.84       5.87      53.52
C       8.90       6.54      52.73
C       8.82       6.28      51.36
C       9.92       6.14       0.95
C       7.72       1.39       8.31
C       8.88       3.22       8.70
C       9.38       2.21       9.48
C       4.44       2.91       6.64
C       4.48       0.95       5.66
C       5.78       1.34       5.85
C       6.12       5.91       6.98
C       5.96       4.85       8.91
C       5.41       6.09       9.03
C      12.94       4.19       5.16
C       0.11       4.14       3.00
C       1.02       3.29       3.58
C       8.94       4.49       5.57
C       8.11       4.52       3.55
C       7.21       3.88       4.35
C       1.46       3.09       8.74
C       1.19       3.13      10.22
C       1.86       4.08      11.01
C       1.62       4.14      12.38
C       0.69       3.28      12.99
C       0.02       2.33      12.20
C       0.28       2.25      10.83
C       0.42       3.35      14.46
C       5.41      11.74      35.34
C       4.24       9.90      35.72
C       3.74      10.92      36.50
C       8.68      10.22      33.66
C       8.65      12.18      32.68
C       7.34      11.79      32.87
C       7.01       7.21      34.00
C       7.16       8.28      35.93
C       7.72       7.03      36.06
C       0.18       8.94      32.19
C      13.02       8.99      30.02
C      12.11       9.84      30.61
C       4.19       8.63      32.59
C       5.01       8.61      30.57
C       5.92       9.25      31.37
C      11.67      10.04      35.77
C      11.94       9.99      37.24
C      11.27       9.05      38.03
C      11.51       8.98      39.40
C      12.44       9.84      40.01
C      13.10      10.79      39.22
C      12.85      10.87      37.85
C      12.70       9.77      41.49
N       2.70       7.83      46.10
N       1.07       8.64      44.82
N       2.58       5.75      47.56
N       1.95       3.65      47.89
N       4.74       6.42      46.45
N       6.75       5.51      46.22
N       4.71      12.47      50.03
N       3.33       0.83      49.09
N       3.86       7.74      48.41
N       4.90       9.19      49.72
N      10.43       5.29      19.08
N      12.06       4.49      17.80
N      10.55       7.37      20.53
N      11.18       9.47      20.87
N       8.39       6.70      19.42
N       6.37       7.61      19.20
N       8.42       0.66      23.01
N       9.80      12.29      22.07
N       9.27       5.39      21.38
N       8.22       3.93      22.70
N      11.86       9.26       5.56
N      11.05       7.63       4.28
N       0.81       9.14       7.02
N       2.91       8.51       7.36
N       0.14      11.30       5.91
N       1.05       0.19       5.69
N       7.22      11.27       9.50
N       5.73       9.89       8.56
N      11.95      10.42       7.87
N      10.49      11.46       9.19
N       1.27       3.87      32.59
N       2.08       5.50      31.31
N      12.32       3.98      34.04
N      10.21       4.61      34.38
N      12.99       1.82      32.93
N      12.07      12.93      32.71
N       5.91       1.86      36.52
N       7.40       3.24      35.58
N       1.17       2.70      34.89
N       2.63       1.66      36.21
N       3.87       1.27      21.46
N       5.50       2.08      22.74
N       3.99      12.32      20.00
N       4.61      10.21      19.66
N       1.82      12.99      21.11
N      12.93      12.07      21.33
N       1.86       5.91      17.52
N       3.24       7.39      18.47
N       2.71       1.17      19.15
N       1.66       2.63      17.83
N       9.26      11.86      48.48
N       7.63      11.05      49.76
N       9.14       0.81      47.02
N       8.51       2.91      46.68
N      11.30       0.14      48.13
N       0.19       1.05      48.35
N      11.27       7.22      44.54
N       9.89       5.73      45.49
N      10.42      11.95      46.17
N      11.46      10.49      44.85
N       7.83       2.70       7.95
N       8.64       1.07       9.23
N       5.75       2.58       6.49
N       3.65       1.95       6.15
N       6.42       4.74       7.60
N       5.51       6.75       7.82
N      12.47       4.71       4.01
N       0.83       3.33       4.95
N       7.74       3.86       5.64
N       9.19       4.90       4.32
N       5.29      10.43      34.97
N       4.49      12.06      36.25
N       7.37      10.55      33.51
N       9.47      11.18      33.17
N       6.70       8.39      34.62
N       7.61       6.37      34.84
N       0.66       8.42      31.03
N      12.29       9.80      31.98
N       5.39       9.27      32.66
N       3.93       8.22      31.34
O       4.25       1.12      38.93
O       2.58      12.73      39.04
O       2.05       0.98      45.94
O       4.00       2.12      45.86
O       8.87      12.01      11.91
O      10.54       0.40      12.01
O      11.07      12.15      18.91
O       9.13      11.01      18.84
O       5.45      10.82      52.44
O       6.96       9.15      52.55
O       5.58       8.62       5.40
O       4.45      10.56       5.33
O       7.68       2.31      25.42
O       6.16       3.98      25.52
O       7.54       4.51      32.42
O       8.68       2.56      32.35
O       2.31       7.68      28.62
O       3.98       6.16      28.52
O       4.51       7.54      21.62
O       2.56       8.68      21.69
O      10.82       5.45       1.60
O       9.15       6.96       1.50
O       8.62       5.58      48.64
O      10.56       4.45      48.72
O       1.12       4.25      15.11
O      12.73       2.58      15.01
O       0.98       2.05       8.11
O       2.12       4.00       8.18
O      12.01       8.87      42.13
O       0.40      10.54      42.03
O      12.15      11.07      35.13
O      11.01       9.13      35.20
