204

Zn       8.65      10.36       2.53
Zn       9.83      12.72       2.65
Zn      12.89       3.59       3.02
Zn      15.53       3.75       3.14
Zn       8.26       5.89       9.19
Zn       9.43       6.67      11.42
H      23.42      14.95       3.27
H      19.13      15.12       3.38
H      21.13      11.30       3.35
H      15.87      12.12       1.38
H      19.02      11.27       5.10
H      17.99       8.19       4.50
H      19.33       8.01       6.61
H      19.63       9.46       5.70
H      18.08      10.75       7.28
H      19.46      10.03       8.13
H      17.86       9.27       8.23
H      16.29       8.06       7.06
H      17.27       6.72       6.43
H      15.89       7.34       5.49
H      16.26      14.33       0.68
H      17.34       4.76      14.04
H      11.29       0.65       0.80
H      19.87       5.17      14.38
H      26.08      19.22      13.50
H      19.97      14.80       0.30
H      24.90      17.23      13.87
H      23.38      17.90      13.23
H      23.35      16.55      14.39
H      13.67      11.53       2.55
H      12.13       7.53       2.42
H      16.33       8.18       3.07
H      22.81       7.61      14.16
H      21.26       6.54      10.30
H      18.56       7.47      13.53
H      17.25       4.10       9.12
H      17.70       8.60      11.16
H      14.46       8.09      11.57
H      14.83      10.49      12.22
H      16.27       9.51      12.21
H      16.90      10.46       9.92
H      16.76      11.72      11.17
H      15.46      11.49       9.98
H      13.69      10.15       9.40
H      12.84       9.91      10.95
H      12.86       8.61       9.74
H      19.44       3.35       8.85
H      11.07      17.47       9.62
H       4.90       3.66       9.53
H      12.42      18.35      11.62
H      27.76      17.61      12.12
H      21.34       3.85      12.06
H      25.47      17.79      11.68
H      25.54      16.76      10.23
H      24.26      17.98      10.41
H      15.88       4.77       7.03
H      11.59       4.70       7.17
H      13.80       6.28      10.49
H      15.85      18.71      13.37
H      14.29      14.71      13.50
H      14.05      16.98       9.85
H      10.46      12.80      11.16
H      14.80      14.36       9.35
H      13.09      13.96       6.54
H      15.44      14.43       5.79
H      15.10      14.90       7.44
H      16.24      12.76       8.26
H      17.34      13.80       7.33
H      16.63      12.36       6.58
H      14.69      11.45       5.73
H      14.15      12.72       4.61
H      12.95      11.72       5.47
H      10.61      13.16      13.46
H      20.39      10.16       0.57
H       5.27       9.97       0.30
H      21.75      12.31       0.92
H      27.01      16.87      14.66
H      11.84      16.65      14.11
H      26.29      15.88      12.65
H      25.35      14.61      13.47
H      25.99      14.34      11.83
H      10.53      10.38      10.30
H       8.81       9.41       6.48
H      11.18      12.97       6.92
C       6.82      12.29       3.10
C      22.40      13.04       3.33
C      22.46      14.44       3.33
C      21.28      15.19       3.37
C      20.04      14.53       3.39
C      19.96      13.13       3.40
C      21.16      12.39       3.39
C      14.73       1.15       3.30
C      18.66      12.42       3.33
C      17.73      12.71       2.31
C      16.56      11.94       2.19
C      16.30      10.88       3.08
C      17.19      10.65       4.15
C      18.35      11.42       4.26
C      17.65       8.61       5.46
C      18.87       8.96       6.32
C      18.55       9.80       7.56
C      16.71       7.63       6.15
C      17.30      14.16       0.33
C      24.48      19.85      14.86
C      25.96      19.72      14.47
C      23.87      17.48      14.13
C      14.45       6.23       2.85
C      11.39      10.15       2.29
C      15.14       9.98       2.86
C      13.86      10.46       2.59
C      12.77       9.58       2.44
C      12.97       8.21       2.52
C      14.26       7.71       2.74
C      15.34       8.59       2.91
C      13.93       3.45       0.52
C      20.66       7.60      13.98
C      21.97       7.46      13.49
C      22.18       7.10      12.16
C      21.08       6.86      11.32
C      19.76       7.00      11.79
C      19.57       7.39      13.12
C       6.70       6.88      11.62
C      18.60       6.67      10.93
C      18.50       5.40      10.31
C      17.35       5.09       9.58
C      16.28       5.99       9.48
C      16.41       7.28      10.04
C      17.57       7.60      10.75
C      14.72       8.87      10.84
C      15.53       9.97      11.55
C      16.20      10.97      10.60
C      13.45       9.42      10.19
C      19.68       3.26       9.92
C      27.73      18.45      10.09
C      28.19      18.45      11.55
C      25.32      17.78      10.60
C      11.29       5.83       9.61
C      13.72       4.10       5.58
C      15.01       5.59       8.83
C      14.96       4.97       7.58
C      13.73       4.64       6.97
C      12.54       4.92       7.64
C      12.57       5.51       8.92
C      13.80       5.83       9.50
C       8.54       3.77      10.87
C      14.99      17.97      11.53
C      15.39      17.86      12.87
C      15.15      16.68      13.58
C      14.51      15.61      12.93
C      14.12      15.69      11.59
C      14.38      16.88      10.89
C       8.95      12.19       0.11
C      13.37      14.59      10.93
C      12.16      14.10      11.48
C      11.42      13.15      10.77
C      11.84      12.68       9.52
C      13.09      13.10       9.01
C      13.83      14.06       9.72
C      13.92      13.24       6.69
C      15.23      14.03       6.79
C      16.43      13.19       7.27
C      13.93      12.22       5.56
C      10.64      14.26      13.42
C      27.76      14.81      14.83
C      27.95      16.33      14.85
C      26.20      14.80      12.80
C       9.78      11.54       5.11
C       9.06       8.51       9.04
C      10.98      11.78       8.71
C      10.37      10.64       9.25
C       9.59       9.79       8.46
C       9.39      10.08       7.11
C       9.97      11.24       6.56
C      10.75      12.08       7.36
O       7.88      13.00       3.08
O       6.78      11.02       2.90
O      15.86       1.77       3.27
O      13.58       1.71       3.25
O      16.80       9.77       5.14
O      18.10      13.73       1.47
O      15.64       5.75       3.01
O      13.39       5.54       2.80
O      10.38       9.35       2.30
O      11.31      11.42       2.20
O      15.00       3.60       1.20
O      12.74       3.42       1.02
O       7.72       7.08      12.39
O       6.77       6.49      10.41
O      15.45       8.22       9.74
O      19.56       4.57      10.54
O      11.31       6.35      10.78
O      10.24       5.58       8.94
O      12.59       3.92       4.98
O      14.87       3.88       5.05
O       9.13       4.68      11.55
O       8.01       3.95       9.71
O       9.53      13.16       0.71
O       8.61      11.08       0.65
O      13.61      12.46       7.90
O      11.81      14.67      12.67
O      10.26      12.63       4.62
O       9.14      10.66       4.45
O       8.46       7.67       8.28
O       9.29       8.34      10.29
