536

Cu      21.15      18.35      25.91
Cu      19.92      16.23      25.91
Cu      10.55      18.29       0.00
Cu      27.62      29.58      25.91
Cu      42.27      30.54       8.66
Cu      27.64       2.36       6.66
Cu      21.15       6.10      17.25
Cu      35.78      34.29      19.25
Cu      21.14      30.54       8.66
Cu      51.65      29.84       6.66
Cu      58.12      33.58      17.25
Cu      27.62      34.29      19.25
Cu      21.15      18.29       0.00
Cu      35.78      29.58      25.91
Cu      42.27      18.35      25.91
Cu      27.64       7.07       0.00
Cu      10.60       0.00       0.00
Cu      24.00       9.17      25.91
Cu      52.82      36.65      25.91
Cu      39.42      27.48       0.00
Cu      47.57      15.29      17.25
Cu      15.85      13.87      19.25
Cu      47.57      21.36       8.66
Cu      47.57      22.77       6.66
Cu      30.07      19.27      25.29
Cu      41.24      12.82       7.06
Cu      33.34      30.26       9.73
Cu      22.19      10.94       9.73
Cu      41.24      10.94       9.73
Cu      30.07      30.26       9.73
Cu      33.33      19.27      25.29
Cu      22.19      12.82       7.07
Cu      31.71      29.32       7.06
Cu      31.71      16.44      25.29
Cu      42.87      13.76       9.73
Cu      20.56      13.76       9.73
Cu      33.31      17.40       0.62
Cu      22.18      23.82      18.86
Cu      41.23      25.71      16.18
Cu      30.08       6.38      16.18
Cu      20.57      22.91      16.19
Cu      42.86      22.88      16.18
Cu      31.72      20.21       0.62
Cu      31.71       7.33      18.84
Cu      41.23      23.83      18.84
Cu      30.07      17.37       0.62
Cu      22.18      25.72      16.17
Cu      33.35       6.38      16.18
H      25.21      17.07      25.33
H      42.55      17.07       4.12
H      38.20      29.57       7.64
H      20.88       9.58      14.73
H      38.21       7.07       7.64
H      29.54      32.08      14.72
H      33.86      24.58      25.33
H      25.23       9.56       4.12
H      27.37      28.32       4.12
H      36.04      13.33      25.33
H      44.70      13.32      14.72
H      18.72      18.32       7.64
H      33.89      12.06       0.58
H      25.21      27.08      21.79
H      38.19      29.58      18.26
H      29.56       4.57      11.18
H      18.71      18.32      18.26
H      44.70      23.33      11.18
H      36.05      23.31       0.58
H      27.37       8.32      21.79
H      42.54      19.57      21.79
H      25.22      19.58       0.58
H      20.87      27.06      11.18
H      38.21       7.08      18.26
H      38.21      19.57       0.58
H      20.87      19.57      21.78
H      25.22       7.08      18.26
H      42.54      27.07      11.18
H      25.21      29.57      18.26
H      33.88       4.57      11.18
H      29.57      12.07       0.58
H      38.20      27.09      21.79
H      36.05       8.32      21.79
H      27.38      23.32       0.58
H      18.71      23.32      11.18
H      44.70      18.33      18.26
H      29.54      24.58      25.33
H      38.21       9.56       4.12
H      25.23       7.07       7.64
H      33.86      32.08      14.73
H      44.70      18.32       7.64
H      18.72      13.32      14.72
H      27.37      13.33      25.33
H      36.05      28.32       4.12
H      20.88      17.08       4.12
H      38.20      17.07      25.33
H      42.54       9.58      14.72
H      25.22      29.57       7.64
H      23.07      13.34      25.52
H      44.85      20.71       4.06
H      40.35      28.51       4.07
H      18.57      10.74      18.17
H      36.22       5.75       4.06
H      31.70      33.50      18.17
H      31.70      28.30      25.52
H      27.22       5.75       4.06
H      23.07      28.51       4.06
H      40.35      13.34      25.52
H      44.85      10.74      18.17
H      18.57      20.71       4.06
H      31.72       8.34       0.39
H      27.20      30.90      21.84
H      36.20      30.90      21.84
H      31.72       3.15       7.74
H      18.57      15.94      21.84
H      44.85      25.91       7.74
H      40.35      23.31       0.38
H      23.07       8.14      21.84
H      44.85      15.94      21.85
H      23.07      23.30       0.38
H      18.57      25.91       7.74
H      40.35       8.14      21.84
C      25.22      15.98      25.34
C      24.01      15.28      25.41
C      22.72      16.03      25.53
C      43.18      17.79       4.63
C      43.64      18.92       3.95
C      43.31      19.12       2.51
C      38.20      29.21       6.62
C      39.41      29.05       5.93
C      40.70      29.41       6.60
C      20.25      10.30      15.23
C      19.78      10.04      16.52
C      20.12       8.74      17.19
C      37.91       7.26       6.62
C      37.16       6.29       5.93
C      36.83       4.99       6.60
C      30.49      32.26      15.23
C      30.49      32.80      16.52
C      29.20      33.16      17.18
C      32.92      25.12      25.34
C      32.91      26.52      25.41
C      34.21      27.26      25.53
C      25.53       8.66       4.63
C      26.28       7.69       3.95
C      26.61       7.88       2.51
C      26.44      28.51       4.64
C      25.22      28.35       3.95
C      25.23      27.96       2.51
C      36.98      13.88      25.34
C      38.19      13.18      25.41
C      38.19      11.69      25.53
C      44.39      12.41      15.23
C      44.85      12.14      16.52
C      45.81      13.08      17.18
C      19.04      18.49       6.62
C      18.57      19.62       5.93
C      17.62      20.56       6.60
C      32.94      11.53       0.57
C      32.93      10.13       0.50
C      34.23       9.38       0.38
C      25.51      27.99      21.27
C      26.26      28.96      21.96
C      26.59      28.76      23.40
C      37.89      29.39      19.29
C      37.14      30.36      19.98
C      36.81      31.65      19.31
C      30.50       4.38      10.68
C      30.51       3.85       9.38
C      29.21       3.49       8.72
C      19.03      18.15      19.29
C      18.56      17.02      19.98
C      17.61      16.08      19.31
C      44.38      24.24      10.68
C      44.85      24.51       9.38
C      45.80      23.57       8.72
C      36.99      22.76       0.57
C      38.20      23.46       0.49
C      38.19      24.95       0.38
C      26.44       8.13      21.27
C      25.22       8.29      21.95
C      25.23       8.68      23.40
C      43.17      18.85      21.27
C      43.64      17.72      21.96
C      43.30      17.53      23.40
C      25.22      20.66       0.57
C      24.01      21.36       0.49
C      22.73      20.62       0.38
C      20.24      26.34      10.68
C      19.78      26.61       9.38
C      20.11      27.90       8.72
C      38.20       7.43      19.29
C      39.41       7.59      19.98
C      40.70       7.24      19.31
C      38.20      20.66       0.57
C      39.41      21.36       0.49
C      40.70      20.62       0.38
C      20.24      18.85      21.27
C      19.78      17.72      21.95
C      20.12      17.53      23.40
C      25.22       7.43      19.29
C      24.01       7.59      19.98
C      22.72       7.24      19.31
C      43.17      26.34      10.68
C      43.64      26.61       9.38
C      43.30      27.91       8.72
C      25.51      29.39      19.29
C      26.26      30.36      19.98
C      26.59      31.65      19.31
C      32.93       4.38      10.68
C      32.93       3.85       9.38
C      34.22       3.49       8.72
C      30.51      11.53       0.57
C      30.51      10.13       0.49
C      29.22       9.39       0.38
C      37.89      27.99      21.27
C      37.14      28.96      21.96
C      36.81      28.76      23.40
C      36.98       8.13      21.27
C      38.20       8.29      21.96
C      38.19       8.68      23.40
C      26.44      22.77       0.57
C      25.23      23.46       0.49
C      25.23      24.95       0.38
C      19.03      24.23      10.68
C      18.56      24.51       9.38
C      17.61      23.57       8.72
C      44.38      18.15      19.29
C      44.85      17.02      19.98
C      45.80      16.09      19.31
C      30.49      25.12      25.34
C      30.49      26.52      25.41
C      29.20      27.26      25.53
C      37.91       8.66       4.63
C      37.16       7.69       3.95
C      36.83       7.88       2.51
C      25.53       7.25       6.62
C      26.28       6.29       5.93
C      26.61       4.99       6.60
C      32.92      32.26      15.23
C      32.91      32.80      16.52
C      34.21      33.16      17.19
C      44.39      18.49       6.62
C      44.85      19.62       5.93
C      45.81      20.56       6.60
C      19.04      12.40      15.23
C      18.57      12.13      16.52
C      17.62      13.08      17.18
C      26.43      13.88      25.34
C      25.22      13.18      25.41
C      25.23      11.69      25.53
C      36.98      28.51       4.63
C      38.20      28.35       3.95
C      38.19      27.96       2.51
C      20.25      17.79       4.63
C      19.78      18.92       3.95
C      20.12      19.12       2.51
C      38.19      15.98      25.34
C      39.41      15.28      25.41
C      40.69      16.03      25.53
C      43.18      10.30      15.23
C      43.64      10.04      16.52
C      43.31       8.74      17.18
C      25.22      29.21       6.62
C      24.01      29.05       5.93
C      22.72      29.41       6.60
C      27.70      16.02      25.26
C      26.43      15.28      25.29
C      24.01      13.88      25.45
C      43.09      16.38       6.67
C      43.55      17.58       5.97
C      44.48      19.84       4.60
C      35.71      29.15       6.67
C      36.98      28.94       5.97
C      39.41      28.62       4.60
C      20.34      11.75      13.22
C      19.88      11.49      14.58
C      18.95      10.95      17.17
C      39.09       9.44       6.67
C      38.28       8.45       5.97
C      36.79       6.51       4.60
C      31.70      31.46      13.22
C      31.70      31.99      14.58
C      31.70      33.07      17.17
C      31.70      22.95      25.25
C      31.70      24.42      25.29
C      31.70      27.22      25.45
C      24.35       9.44       6.67
C      25.16       8.44       5.97
C      26.65       6.50       4.60
C      27.70      29.15       6.67
C      26.44      28.94       5.97
C      24.01      28.62       4.60
C      35.71      16.01      25.25
C      36.98      15.28      25.29
C      39.41      13.88      25.45
C      43.09      11.75      13.21
C      43.55      11.49      14.58
C      44.48      10.95      17.17
C      20.34      16.38       6.67
C      19.88      17.58       5.97
C      18.95      19.84       4.60
C      31.72      13.69       0.65
C      31.73      12.23       0.61
C      31.72       9.43       0.46
C      24.33      27.21      19.24
C      25.14      28.20      19.94
C      26.63      30.14      21.31
C      39.07      27.21      19.23
C      38.26      28.20      19.94
C      36.77      30.14      21.31
C      31.72       5.18      12.69
C      31.72       4.66      11.33
C      31.72       3.58       8.73
C      20.33      20.27      19.23
C      19.87      19.07      19.93
C      18.94      16.80      21.31
C      43.09      24.89      12.69
C      43.54      25.15      11.32
C      44.47      25.69       8.73
C      35.72      20.63       0.65
C      36.99      21.36       0.61
C      39.41      22.76       0.46
C      27.71       7.50      19.23
C      26.44       7.71      19.94
C      24.01       8.03      21.31
C      43.08      20.27      19.23
C      43.54      19.07      19.94
C      44.47      16.81      21.31
C      27.71      20.63       0.65
C      26.44      21.36       0.61
C      24.01      22.76       0.46
C      20.33      24.89      12.69
C      19.87      25.15      11.33
C      18.94      25.69       8.73
C      35.72       7.50      19.23
C      36.98       7.71      19.94
C      39.41       8.03      21.31
N      27.80      17.37      25.25
N      29.10      17.61      25.25
N      42.31      15.42       6.11
N      42.17      14.51       7.06
N      35.62      29.60       7.95
N      34.31      29.67       8.17
N      21.12      10.91      12.50
N      21.26      11.50      11.32
N      39.53       9.30       7.95
N      40.24      10.39       8.18
N      30.58      31.21      12.50
N      31.02      30.79      11.32
N      32.82      22.19      25.25
N      32.38      20.95      25.25
N      23.91      10.59       6.12
N      23.19      11.17       7.06
N      28.92      28.95       6.12
N      29.78      29.28       7.07
N      34.49      15.42      25.25
N      33.63      16.43      25.25
N      43.43      12.85      12.50
N      42.85      12.68      11.32
N      20.00      16.07       7.95
N      20.58      14.90       8.18
N      32.83      14.47       0.66
N      32.38      15.71       0.66
N      23.90      26.05      19.79
N      23.18      25.48      18.84
N      39.51      27.35      17.96
N      40.23      26.26      17.73
N      30.60       5.44      13.41
N      31.04       5.86      14.58
N      20.00      20.59      17.96
N      20.59      21.75      17.75
N      43.42      23.79      13.41
N      42.84      23.97      14.58
N      34.51      21.23       0.66
N      33.64      20.24       0.66
N      28.93       7.70      19.79
N      29.79       7.37      18.84
N      42.30      21.22      19.79
N      42.16      22.14      18.84
N      27.80      19.28       0.66
N      29.10      19.04       0.66
N      21.11      25.74      13.40
N      21.27      25.16      14.57
N      35.62       7.05      17.96
N      34.32       6.97      17.73
N      35.61      19.28       0.66
N      34.31      19.05       0.66
N      21.11      21.22      19.80
N      21.27      22.13      18.86
N      27.81       7.05      17.96
N      29.11       6.97      17.73
N      42.30      25.74      13.41
N      42.16      25.15      14.58
N      23.90      27.35      17.96
N      23.18      26.26      17.73
N      32.84       5.44      13.41
N      32.40       5.86      14.58
N      30.59      14.44       0.66
N      31.02      15.69       0.66
N      39.51      26.05      19.79
N      40.23      25.48      18.84
N      34.50       7.70      19.79
N      33.64       7.36      18.84
N      28.92      21.22       0.66
N      29.78      20.22       0.66
N      20.00      23.80      13.42
N      20.59      23.98      14.59
N      43.42      20.58      17.96
N      42.84      21.74      17.73
N      30.58      22.19      25.25
N      31.02      20.95      25.25
N      39.53      10.59       6.12
N      40.24      11.17       7.06
N      23.91       9.30       7.95
N      23.19      10.39       8.18
N      32.83      31.21      12.50
N      32.38      30.79      11.32
N      43.43      16.07       7.95
N      42.85      14.90       8.17
N      20.00      12.85      12.50
N      20.58      12.68      11.32
N      28.92      15.42      25.25
N      29.78      16.43      25.25
N      34.49      28.95       6.11
N      33.63      29.28       7.06
N      21.12      15.42       6.12
N      21.26      14.51       7.07
N      35.61      17.37      25.25
N      34.31      17.61      25.25
N      42.31      10.91      12.50
N      42.17      11.50      11.32
N      27.80      29.60       7.95
N      29.10      29.67       8.18
O      21.65      15.33      25.59
O      22.79      17.31      25.58
O      43.76      20.17       1.94
O      42.62      18.20       1.94
O      41.77      29.23       5.92
O      40.62      29.89       7.78
O      19.67       8.56      18.37
O      20.81       7.90      16.51
O      36.14       4.15       5.92
O      37.28       4.82       7.78
O      29.27      33.64      18.37
O      28.13      32.98      16.51
O      34.14      28.54      25.58
O      35.28      26.56      25.58
O      27.30       6.97       1.94
O      26.16       8.94       1.94
O      24.09      27.82       1.94
O      26.37      27.82       1.95
O      39.33      11.11      25.58
O      37.05      11.12      25.58
O      46.19      12.78      18.37
O      46.19      14.10      16.51
O      17.23      21.58       5.92
O      17.24      20.26       7.78
O      34.16       8.10       0.32
O      35.30      10.08       0.32
O      27.28      29.68      23.97
O      26.14      27.70      23.96
O      36.12      32.49      19.99
O      37.26      31.83      18.12
O      29.29       3.01       7.54
O      28.14       3.67       9.40
O      17.23      15.06      19.99
O      17.23      16.38      18.13
O      46.18      23.87       7.54
O      46.18      22.55       9.40
O      39.33      25.53       0.32
O      37.05      25.53       0.33
O      24.09       8.82      23.96
O      26.37       8.82      23.96
O      43.75      16.48      23.97
O      42.61      18.45      23.96
O      21.65      21.31       0.32
O      22.80      19.34       0.32
O      19.66      28.08       7.54
O      20.81      28.74       9.40
O      41.77       7.41      19.99
O      40.63       6.76      18.12
O      41.77      21.32       0.32
O      40.63      19.34       0.33
O      19.66      16.47      23.96
O      20.81      18.45      23.96
O      21.65       7.41      19.99
O      22.80       6.76      18.12
O      43.75      28.08       7.54
O      42.61      28.74       9.40
O      27.28      32.49      19.99
O      26.14      31.83      18.12
O      34.15       3.01       7.54
O      35.29       3.67       9.40
O      29.29       8.11       0.32
O      28.15      10.09       0.32
O      36.12      29.68      23.96
O      37.26      27.71      23.96
O      39.33       8.82      23.97
O      37.05       8.82      23.96
O      24.09      25.53       0.32
O      26.37      25.53       0.32
O      17.23      23.87       7.53
O      17.23      22.55       9.40
O      46.18      15.07      19.99
O      46.18      16.39      18.12
O      29.27      28.54      25.58
O      28.13      26.56      25.58
O      36.14       6.96       1.94
O      37.28       8.94       1.94
O      27.30       4.15       5.92
O      26.16       4.82       7.78
O      34.14      33.64      18.37
O      35.28      32.98      16.51
O      46.19      21.58       5.92
O      46.19      20.26       7.78
O      17.24      12.78      18.37
O      17.24      14.09      16.51
O      24.09      11.11      25.58
O      26.37      11.12      25.58
O      39.33      27.82       1.94
O      37.05      27.82       1.94
O      19.67      20.17       1.94
O      20.81      18.20       1.95
O      41.77      15.33      25.59
O      40.62      17.31      25.58
O      43.75       8.56      18.37
O      42.61       7.90      16.51
O      21.65      29.23       5.92
O      22.79      29.89       7.78
O      31.70      18.33      25.47
O      41.93      12.42       8.78
O      31.70      30.12       8.78
O      21.50      12.42       8.78
O      31.70      18.33       0.41
O      21.48      24.25      17.14
O      41.93      24.23      17.13
O      31.72       6.52      17.13
