156

Co      -2.29       1.44      16.39
Co       9.44      10.33      10.14
Co      10.87      16.33       1.30
Co      -0.86       7.44       7.55
H      10.72       0.21       3.85
H      10.53       0.80       5.46
H       0.30       4.21       1.41
H      10.44       3.09       6.05
H       0.00       6.04       3.11
H       5.35       2.69       0.42
H       2.86       2.63       0.36
H      -0.03       0.10      14.80
H       2.45       0.07      14.66
H       7.32       3.02       0.10
H       6.93       2.97      17.69
H       6.92      17.70      14.90
H       4.46      17.57      14.90
H      -0.71       9.10       4.99
H      -0.51       9.69       3.38
H       9.71      13.10       7.44
H      -0.43      11.97       2.79
H      10.01      14.92       5.74
H       4.67      11.58       8.43
H       7.16      11.52       8.49
H       7.19       8.99      11.74
H       4.71       8.96      11.87
H       2.69      11.91       8.75
H       0.22      11.86       8.85
H       0.24       8.82      11.64
H       2.70       8.68      11.63
H      -2.13      17.56      13.84
H      -1.94      16.97      12.23
H       8.29      13.56      16.28
H      -1.86      14.68      11.63
H       8.58      11.73      14.58
H       3.24      15.08      17.27
H       5.73      15.14      17.33
H       8.61      17.67       2.89
H       6.14      17.70       3.03
H       1.26      14.75      17.59
H       1.65      14.80       0.00
H       1.66       0.07       2.79
H       4.13       0.20       2.79
H       9.29       8.67      12.70
H       9.10       8.08      14.31
H      -1.13       4.67      10.25
H       9.01       5.80      14.90
H      -1.42       2.85      11.95
H       3.92       6.19       9.26
H       1.43       6.25       9.20
H       1.40       8.78       5.95
H       3.87       8.81       5.82
H       5.89       5.86       8.94
H       8.36       5.91       8.84
H       8.35       8.95       6.05
H       5.89       9.09       6.05
C      -0.25       2.63       2.74
C      -0.63       2.28       4.07
C      -0.73       3.32       5.02
C      -0.52       4.65       4.68
C      -0.16       5.00       3.36
C      -0.01       3.99       2.42
C      -0.09       1.62       1.67
C      -0.67       5.71       5.72
C       2.72       1.38      16.39
C       1.99       2.10      17.34
C       0.60       2.08      17.33
C       0.57       0.66      15.51
C       1.97       0.65      15.45
C       4.21       1.40      16.36
C       4.95       2.30      17.14
C       6.34       2.29      17.09
C       6.34       0.59      15.54
C       4.95       0.53      15.54
C      10.26      11.52       6.10
C      10.65      11.17       4.77
C      10.75      12.21       3.82
C      10.53      13.54       4.16
C      10.17      13.88       5.48
C      10.02      12.87       6.42
C      10.11      10.51       7.18
C      10.69      14.60       3.13
C       4.44      10.27      10.15
C       5.17      10.99       9.19
C       6.56      10.96       9.21
C       6.58       9.55      11.03
C       5.19       9.53      11.08
C       2.95      10.28      10.18
C       2.21      11.18       9.39
C       0.82      11.17       9.45
C       0.82       9.47      11.00
C       2.21       9.42      11.00
C       8.84      15.14      14.95
C       9.22      15.49      13.62
C       9.32      14.45      12.66
C       9.10      13.12      13.01
C       8.74      12.77      14.33
C       8.59      13.78      15.26
C       8.68      16.15      16.02
C       9.26      12.06      11.97
C       5.87      16.39       1.30
C       6.60      15.67       0.35
C       7.99      15.69       0.36
C       8.01      17.11       2.18
C       6.62      17.12       2.24
C       4.38      16.37       1.33
C       3.64      15.47       0.55
C       2.25      15.48       0.60
C       2.25      17.18       2.15
C       3.64      17.24       2.15
C      -1.68       6.25      11.59
C      -2.06       6.60      12.92
C      -2.16       5.56      13.87
C      -1.94       4.23      13.52
C      -1.58       3.89      12.21
C      -1.43       4.90      11.27
C      -1.52       7.26      10.51
C      -2.10       3.17      14.56
C       4.15       7.50       7.54
C       3.42       6.78       8.50
C       2.02       6.81       8.48
C       2.00       8.22       6.66
C       3.40       8.24       6.61
C       5.63       7.49       7.51
C       6.38       6.59       8.29
C       7.77       6.60       8.24
C       7.76       8.30       6.69
C       6.37       8.36       6.69
N      10.51       1.00       4.47
N      -0.11       1.37      16.43
N       7.04       1.44      16.31
N      -0.50       9.88       4.38
N       7.27      10.25      10.11
N       0.12      10.32      10.23
N      -1.93      16.77      13.22
N       8.70      16.40       1.26
N       1.55      16.33       1.38
N       9.09       7.89      13.31
N       1.32       7.52       7.58
N       8.47       7.45       7.46
O       0.58       1.96       0.63
O      10.81       0.47       1.83
O      -0.72       5.39       6.96
O      -0.74       6.94       5.37
O       9.44      10.84       8.22
O      -0.80       9.36       7.01
O      10.74      14.27       1.89
O      10.76      15.83       3.47
O       8.01      15.81      17.06
O      -2.22      17.30      15.86
O       9.31      12.38      10.73
O       9.33      10.83      12.31
O      -0.85       6.93       9.47
O       9.38       8.41      10.68
O      -2.15       3.50      15.80
O      -2.17       1.94      14.22
