74

H       0.72       4.51      20.60
H      -0.08      -1.32      23.01
H       0.05      -1.01      34.68
H       1.78       4.70      29.05
H      -1.00      -1.20      26.23
H       1.66       5.00      27.05
H      -0.89      -1.50      28.23
H       0.85       4.82      32.27
C       0.67       2.48      31.31
C       1.21       2.64      17.81
C      -0.43       0.86      37.47
C       0.85       2.79      28.49
C      -0.08       0.71      26.79
C      -0.18       0.57      28.20
C       0.95       2.93      27.08
C       0.27       1.62      29.04
C       0.51       1.88      26.24
C       1.32       3.79      29.39
C      -0.54      -0.29      25.89
C       1.19       3.67      30.76
C      -0.41      -0.17      24.52
C       1.35       2.78      16.36
C      -0.57       0.72      38.92
C       1.43       4.12      26.48
C      -0.65      -0.62      28.80
C       1.50       3.16      22.88
C       0.63       2.02      24.83
C      -0.72       0.34      32.40
C       0.07       1.29      22.59
C       0.70       2.21      32.69
C       1.26       1.23      19.80
C      -0.48       2.27      35.48
C       1.23       1.36      18.40
C      -0.46       2.14      36.88
C       1.10       3.77      18.62
C      -0.33      -0.28      36.66
C       0.91       3.63      20.00
C       0.15       1.48      30.45
C      -0.13      -0.13      35.28
C       1.01       2.37      20.61
C      -0.24       1.13      34.67
C       1.27       5.10      18.08
C      -0.49      -1.60      37.20
C       1.86       5.55      24.57
C      -1.08      -2.05      30.71
C      -0.42       3.32      37.73
C       1.24       3.15      24.26
C       1.19       0.18      17.55
C      -0.83       3.55      34.89
C       1.60      -0.05      20.39
C      -0.47       0.35      31.02
C       1.57       4.24      25.10
C      -0.79      -0.74      30.18
C       0.11       1.02      23.97
N       0.87       2.26      22.05
N      -1.29      -3.11      31.13
N      -0.36       4.25      38.41
N       1.13      -0.75      16.87
N      -1.10       4.57      34.42
N       1.88      -1.07      20.86
N      -0.10       1.24      33.23
N       1.43       6.16      17.64
N      -0.65      -2.66      37.64
N       2.07       6.61      24.15
O      -1.61      -0.54      32.92
O       1.56       2.89      33.49
O      -0.78       0.61      21.79
O       1.50       4.77      31.53
O      -0.73      -1.27      23.75
O       0.28       2.71      15.62
O       0.49       0.79      39.66
O       2.54       2.93      15.87
O      -1.77       0.57      39.41
O       2.39       4.04      22.36
