10

C       1.97      -0.97      13.74
H       4.07      -0.91      14.04
H       1.07      -1.57      13.60
C       3.32      -2.94      13.87
O       2.25      -3.66      13.72
O       2.90       1.17      13.92
O       4.51      -3.43      13.97
O       0.63       0.95      13.67
C       1.83       0.45      13.77
C       3.17      -1.52      13.90
