18

C      -0.52      -0.31      11.64
Ni      -0.14      -1.04       8.76
Ni       2.13       0.41       7.67
Ni      -2.38       0.63       9.47
O      -1.53      -2.31       8.06
O      -3.11      -0.74       8.19
O       0.74       1.67       6.94
O      -0.86       0.75       8.20
O      -3.78       0.62      10.92
O       1.39       0.00       9.49
C      -2.71      -1.92       7.83
O       1.15      -1.26       7.17
C      -0.45       1.66       7.37
O      -3.36       1.90       8.27
C       1.80       0.26      10.69
O      -1.10      -0.64      10.46
C       1.73      -2.45       6.86
C      -2.78       2.75       7.39
