13

C       0.51       1.67       3.74
C      -0.54       1.42       2.75
C      -1.94       1.38       2.87
C      -2.41       1.18       1.57
C      -3.80       1.14       1.03
O       0.26       2.36       4.78
O       1.69       1.21       3.51
O      -4.73       1.28       1.91
O      -3.97       1.03      -0.21
H      -1.27       0.93      -0.25
H      -2.55       1.48       3.76
N      -0.16       1.23       1.46
N      -1.30       1.10       0.77
