22

H      12.07       8.11      11.48
H       7.76       9.56      15.26
H       5.77      10.32      14.11
H       5.74      10.51      11.64
H       7.70       9.91      10.34
C      10.03       8.88      11.34
C       9.02       9.46      13.47
C       9.87       8.33      10.01
C       8.94       9.40      12.06
C      10.65       9.99      15.31
C      11.23       8.56      12.00
C      10.30       9.28      14.09
C      11.36       8.75      13.35
C       7.83       9.71      14.19
C       6.66      10.10      13.54
C       6.64      10.20      12.15
C       7.76       9.84      11.41
O      10.94       8.03       9.42
O       8.74       7.81       9.69
O       9.69      10.54      15.92
O      11.87      10.31      15.55
F      12.56       8.48      13.93
