828

Cu       1.74      13.78      34.17
Cu       5.69       0.40      34.14
Cu       1.79      14.70       5.32
Cu       5.75      28.07       5.31
Cu      11.20      21.37      48.45
Cu      11.26       7.12      19.61
Cu      13.20      13.77      52.38
Cu       9.24       0.40      52.40
Cu      13.26      14.71      23.53
Cu       9.30      28.06      23.54
Cu       3.74      21.37      38.09
Cu       3.79       7.12       9.25
H       7.34      14.49      37.90
H      10.59      17.41      43.17
H      11.16      15.92      37.16
H       2.38      15.76      36.11
H       4.35      16.63      37.32
H       6.20      12.76      36.75
H       4.14      12.04      35.60
H      11.75      18.69      47.46
H      11.63      17.56      45.26
H       8.74      20.53      44.04
H       8.97      21.54      46.30
H      14.26      15.50      33.78
H      12.22      15.95      35.09
H      14.20      14.21      38.52
H       1.06      13.80      37.05
H       7.28      18.02      40.55
H      11.45      17.05      41.18
H       9.28      15.20      37.96
H      11.15      18.19      54.29
H       7.50      14.91       1.72
H      11.19      16.15       2.01
H       9.62      19.09      49.16
H       8.95      17.99      51.29
H      12.61      19.51      53.02
H      13.11      20.57      50.84
H       4.61      13.47       4.99
H       6.60      13.89       3.61
H       4.25      16.72       1.33
H       2.36      16.22       2.85
H      14.35      16.54       5.35
H      12.30      16.71       3.97
H      14.28      14.30       0.97
H       1.14      14.21       2.47
H       7.14      17.13      55.60
H       9.34      15.49       1.30
H      11.43      16.57      55.48
H       0.05      28.22      37.92
H      11.84      25.31      43.16
H      11.31      26.84      37.16
H       5.01      26.96      36.13
H       3.03      26.07      37.31
H       1.18       1.44      36.76
H       3.26       2.17      35.64
H      10.69      24.05      47.46
H      10.83      25.19      45.26
H      13.75      22.22      44.08
H      13.49      21.22      46.33
H       8.24      27.23      33.77
H      10.27      26.78      35.10
H       8.27       0.05      38.50
H       6.32       0.46      37.01
H       0.09      24.69      40.54
H      11.02      25.68      41.18
H      13.20      27.52      37.96
H      11.29      24.48      54.30
H       0.07      27.84       1.70
H      11.47      26.59       2.02
H      12.79      23.63      49.15
H      13.47      24.71      51.28
H       9.82      23.19      53.02
H       9.30      22.15      50.84
H       2.92       0.77       4.99
H       0.95       0.36       3.59
H       3.32      26.04       1.31
H       5.20      26.53       2.86
H       8.30      26.22       5.34
H      10.36      26.06       3.99
H       8.41      28.47       0.97
H       6.42       0.04       2.44
H       0.20      25.56      55.59
H      13.33      27.27       1.29
H      11.00      26.14      55.49
H       7.39      13.99       9.06
H      10.68      11.05      14.31
H      11.21      12.57       8.30
H       2.43      12.74       7.24
H       4.40      11.86       8.45
H       6.26      15.72       7.91
H       4.20      16.46       6.75
H      11.82       9.80      18.61
H      11.70      10.93      16.41
H       8.82       7.94      15.20
H       9.06       6.94      17.46
H      14.32      12.99       4.93
H      12.27      12.54       6.24
H      14.25      14.27       9.68
H       1.11      14.68       8.21
H       7.33      10.46      11.71
H      11.50      11.43      12.32
H       9.33      13.27       9.12
H      11.23      10.28      25.45
H       7.45      13.59      30.56
H      11.16      12.34      30.84
H       9.70       9.40      20.31
H       9.03      10.48      22.44
H      12.69       8.96      24.18
H      13.19       7.90      22.00
H       4.56      15.03      33.83
H       6.55      14.62      32.45
H       4.23      11.75      30.19
H       2.33      12.25      31.70
H      14.30      11.95      34.19
H      12.25      11.79      32.81
H      14.24      14.22      29.83
H       1.11      14.28      31.32
H       7.22      11.30      26.78
H       9.31      13.03      30.14
H      11.51      11.95      26.63
H       0.13       0.25       9.06
H      11.90       3.17      14.32
H      11.40       1.66       8.30
H       5.09       1.53       7.26
H       3.10       2.40       8.46
H       1.28      27.03       7.90
H       3.35      26.31       6.76
H      10.70       4.43      18.60
H      10.84       3.31      16.40
H      13.80       6.24      15.24
H      13.54       7.24      17.50
H       8.30       1.27       4.93
H      10.34       1.72       6.24
H       8.38      28.46       9.66
H       6.42      28.06       8.19
H       0.19       3.74      11.74
H      11.11       2.77      12.34
H      13.29       0.98       9.10
H      11.35       3.99      25.46
H       0.01       0.65      30.55
H      11.41       1.87      30.85
H      12.83       4.85      20.31
H      13.51       3.76      22.44
H       9.87       5.29      24.18
H       9.35       6.34      22.00
H       2.87      27.72      33.85
H       0.90      28.12      32.43
H       3.26       2.46      30.18
H       5.13       1.97      31.73
H       8.23       2.28      34.15
H      10.30       2.42      32.80
H       8.34       0.01      29.79
H       6.36      28.46      31.26
H       0.26       2.92      26.75
H      13.27       1.22      30.13
H      11.07       2.33      26.63
H       7.61      14.48      48.63
H       4.30      17.40      43.37
H       3.79      15.89      49.38
H      12.55      15.74      50.47
H      10.59      16.62      49.25
H       8.73      12.75      49.79
H      10.79      12.02      50.96
H       3.15      18.70      39.08
H       3.26      17.56      41.28
H       6.21      20.49      42.48
H       5.97      21.50      40.22
H       0.66      15.51      52.75
H       2.71      15.95      51.44
H       0.75      14.18      48.02
H      13.87      13.79      49.48
H       7.67      18.01      45.98
H       3.50      16.99      45.35
H       5.68      15.21      48.59
H       3.77      18.21      32.25
H       7.55      14.89      27.14
H       3.84      16.15      26.84
H       5.29      19.08      37.39
H       5.96      17.99      35.26
H       2.31      19.53      33.52
H       1.81      20.58      35.70
H      10.44      13.46      23.86
H       8.45      13.87      25.24
H      10.77      16.74      27.51
H      12.67      16.24      26.00
H       0.69      16.55      23.50
H       2.74      16.70      24.88
H       0.76      14.27      27.86
H      13.90      14.20      26.37
H       7.77      17.18      30.92
H       5.69      15.45      27.55
H       3.49      16.54      31.07
H      14.88      28.23      48.64
H       3.08      25.32      43.39
H       3.60      26.83      49.38
H       9.91      26.96      50.43
H      11.89      26.09      49.23
H      13.72       1.46      49.79
H      11.66       2.18      50.94
H       4.26      24.08      39.09
H       4.11      25.21      41.30
H       1.20      22.23      42.46
H       1.47      21.22      40.20
H       6.69      27.21      52.77
H       4.65      26.76      51.44
H       6.63       0.05      48.04
H       8.58       0.45      49.52
H      14.83      24.69      45.99
H       3.90      25.70      45.37
H       1.71      27.53      48.58
H       3.65      24.49      32.24
H      14.98      27.84      27.15
H       3.59      26.61      26.85
H       2.15      23.62      37.38
H       1.47      24.70      35.25
H       5.13      23.20      33.52
H       5.65      22.16      35.70
H      12.12       0.76      23.85
H      14.09       0.36      25.26
H      11.74      26.03      27.53
H       9.86      26.52      25.97
H       6.76      26.20      23.53
H       4.70      26.05      24.89
H       6.66      28.48      27.89
H       8.63       0.03      26.42
H      14.74      25.57      30.95
H       1.73      27.27      27.57
H       3.93      26.15      31.07
H       7.66      13.99      19.79
H       4.37      11.04      14.54
H       3.84      12.57      20.53
H      12.63      12.73      21.59
H      10.65      11.85      20.39
H       8.81      15.72      20.95
H      10.87      16.45      22.10
H       3.25       9.80      10.24
H       3.36      10.91      12.45
H       6.26       7.94      13.64
H       6.04       6.95      11.38
H       0.75      12.99      23.91
H       2.79      12.54      22.59
H       0.80      14.28      19.17
H      13.94      14.69      20.64
H       7.73      10.46      17.15
H       3.55      11.41      16.52
H       5.72      13.28      19.72
H       3.83      10.28       3.40
H       7.49      13.56      55.98
H       3.78      12.32      55.71
H       5.36       9.40       8.54
H       6.03      10.48       6.40
H       2.36       8.97       4.68
H       1.86       7.92       6.87
H      10.37      15.00      52.70
H       8.39      14.57      54.08
H      10.74      11.77      56.39
H      12.63      12.27      54.86
H       0.65      11.96      52.35
H       2.70      11.79      53.73
H       0.71      14.20      56.72
H      13.85      14.29      55.22
H       7.84      11.32       2.08
H       5.65      13.02      56.41
H       3.55      11.94       2.23
H      14.92       0.25      19.79
H       3.11       3.16      14.54
H       3.66       1.67      20.55
H       9.96       1.51      21.57
H      11.93       2.39      20.37
H      13.79      27.03      20.94
H      11.72      26.30      22.08
H       4.28       4.43      10.24
H       4.15       3.29      12.44
H       1.29       6.30      13.66
H       1.54       7.30      11.40
H       6.75       1.25      23.93
H       4.71       1.70      22.61
H       6.69      28.45      19.19
H       8.64      28.03      20.67
H      14.86       3.78      17.14
H       3.94       2.80      16.53
H       1.77       0.96      19.74
H       3.70       4.00       3.40
H      14.93       0.65      55.99
H       3.53       1.88      55.70
H       2.18       4.88       8.54
H       1.51       3.79       6.41
H       5.19       5.28       4.69
H       5.69       6.33       6.87
H      12.07      27.71      52.71
H      14.04      28.12      54.11
H      11.68       2.45      56.37
H       9.80       1.95      54.83
H       6.70       2.27      52.38
H       4.64       2.43      53.74
H       6.60       0.01      56.75
H       8.58      28.44      55.27
H      14.79       2.93       2.11
H       1.67       1.21      56.42
H       3.98       2.35       2.22
C       3.24      15.11      36.29
C       4.34      15.61      36.95
C       5.46      14.78      37.16
C       5.37      13.46      36.64
C       4.21      13.05      36.00
C       6.78      16.36      38.58
C      11.10      19.08      46.68
C      11.03      18.45      45.44
C      10.18      18.97      44.45
C       9.43      20.11      44.76
C       9.56      20.66      46.03
C       9.31      18.63      42.13
C      14.22      15.23      34.83
C      13.07      15.48      35.57
C      13.03      15.13      36.93
C      14.17      14.50      37.48
C       0.17      14.29      36.66
C      11.77      15.49      39.07
C       8.09      16.52      39.23
C       8.16      17.45      40.29
C       9.34      17.62      41.02
C      10.50      16.90      40.67
C      10.48      16.07      39.52
C       9.28      15.87      38.83
C      10.25      19.17      50.04
C       9.88      18.55      51.22
C      10.73      18.65      52.34
C      11.92      19.39      52.19
C      12.20      19.98      50.97
C       9.26      17.45      53.98
C       4.56      14.19       4.18
C       5.68      14.44       3.40
C       5.60      15.34       2.32
C       4.37      16.01       2.13
C       3.31      15.71       2.98
C       6.79      16.25       0.32
C      14.30      16.06       4.37
C      13.15      16.14       3.60
C      13.11      15.53       2.33
C      14.25      14.81       1.93
C       0.25      14.77       2.77
C      11.89      15.64       0.15
C       9.29      16.96      55.38
C       8.07      16.82      56.07
C       8.03      16.30      57.38
C       9.34      15.92       0.30
C      10.47      16.01      57.30
C      10.48      16.55      56.00
C       4.15      27.60      36.30
C       3.04      27.09      36.95
C       1.92      27.93      37.15
C       2.01       0.74      36.65
C       3.18       1.16      36.02
C       0.58      26.33      38.55
C      11.35      23.67      46.68
C      11.42      24.29      45.44
C      12.29      23.77      44.46
C      13.04      22.64      44.79
C      12.90      22.09      46.05
C      13.18      24.12      42.14
C       8.27      27.51      34.82
C       9.41      27.27      35.57
C       9.45      27.62      36.93
C       8.31      28.26      37.46
C       7.22      28.47      36.63
C      10.70      27.24      39.07
C      14.37      26.18      39.21
C      14.30      25.26      40.28
C      13.13      25.11      41.02
C      11.97      25.82      40.66
C      11.99      26.66      39.52
C      13.19      26.85      38.82
C      12.16      23.55      50.04
C      12.54      24.16      51.22
C      11.70      24.04      52.34
C      10.51      23.31      52.19
C      10.21      22.73      50.97
C      13.18      25.22      54.00
C       2.98       0.05       4.18
C       1.88      28.32       3.39
C       1.97      27.42       2.31
C       3.20      26.75       2.13
C       4.24      27.04       2.98
C       0.77      26.49       0.31
C       8.35      26.70       4.36
C       9.51      26.62       3.61
C       9.56      27.24       2.34
C       8.42      27.96       1.93
C       7.31      27.99       2.76
C      10.79      27.14       0.17
C      13.15      25.73      55.39
C      14.37      25.87      56.07
C      14.42      26.40      57.37
C      13.32      26.83       0.29
C      11.99      26.70      57.30
C      11.96      26.16      56.00
C       3.29      13.38       7.43
C       4.39      12.88       8.09
C       5.51      13.71       8.31
C       5.43      15.03       7.79
C       4.27      15.44       7.15
C       6.83      12.12       9.73
C      11.18       9.41      17.83
C      11.11      10.03      16.59
C      10.26       9.51      15.60
C       9.51       8.36      15.92
C       9.64       7.82      17.18
C       9.35       9.87      13.29
C      14.28      13.26       5.99
C      13.13      13.01       6.72
C      13.08      13.36       8.09
C      14.22      13.98       8.63
C       0.22      14.20       7.81
C      11.82      12.99      10.22
C       8.14      11.95      10.38
C       8.21      11.03      11.44
C       9.39      10.86      12.17
C      10.55      11.57      11.81
C      10.53      12.40      10.67
C       9.33      12.61       9.98
C      10.33       9.31      21.20
C       9.96       9.93      22.38
C      10.80       9.82      23.50
C      11.99       9.08      23.35
C      12.28       8.49      22.12
C       9.32      10.99      25.16
C       4.51      14.30      33.02
C       5.64      14.06      32.25
C       5.56      13.15      31.18
C       4.34      12.47      30.99
C       3.27      12.77      31.83
C       6.78      12.19      29.21
C      14.26      12.43      33.21
C      13.11      12.36      32.45
C      13.07      12.97      31.18
C      14.21      13.70      30.78
C       0.22      13.73      31.62
C      11.85      12.89      29.00
C       9.36      11.51      26.55
C       8.15      11.63      27.25
C       8.11      12.17      28.55
C       9.32      12.59      29.15
C      10.54      12.48      28.45
C      10.55      11.94      27.15
C       4.23       0.88       7.44
C       3.12       1.38       8.10
C       2.01       0.54       8.30
C       2.10      27.73       7.79
C       3.27      27.32       7.15
C       0.69       2.12       9.73
C      11.37       4.81      17.83
C      11.45       4.19      16.59
C      12.33       4.70      15.62
C      13.09       5.83      15.95
C      12.95       6.38      17.22
C      13.26       4.32      13.31
C       8.34       0.99       5.98
C       9.49       1.24       6.72
C       9.53       0.88       8.08
C       8.40       0.25       8.62
C       7.30       0.04       7.80
C      10.79       1.25      10.22
C      14.47       2.28      10.38
C      14.40       3.18      11.47
C      13.22       3.33      12.20
C      12.06       2.63      11.83
C      12.08       1.82      10.67
C      13.28       1.63       9.97
C      12.21       4.93      21.19
C      12.59       4.32      22.37
C      11.75       4.44      23.50
C      10.56       5.17      23.35
C      10.26       5.75      22.13
C      13.24       3.26      25.15
C       2.93      28.44      33.03
C       1.81       0.17      32.24
C       1.91       1.08      31.16
C       3.13       1.75      30.99
C       4.18       1.46      31.85
C       0.72       2.00      29.16
C       8.29       1.79      33.18
C       9.45       1.86      32.43
C       9.49       1.25      31.16
C       8.36       0.53      30.75
C       7.24       0.50      31.58
C      10.72       1.38      28.98
C      13.21       2.75      26.54
C      14.43       2.61      27.22
C      14.47       2.07      28.52
C      13.27       1.66      29.13
C      12.04       1.78      28.44
C      12.02       2.32      27.14
C      11.70      15.10      50.28
C      10.60      15.60      49.61
C       9.48      14.76      49.39
C       9.56      13.45      49.91
C      10.72      13.04      50.56
C       8.17      16.35      47.96
C       3.80      19.07      39.86
C       3.87      18.44      41.10
C       4.73      18.95      42.09
C       5.50      20.08      41.77
C       5.37      20.64      40.50
C       5.63      18.59      44.40
C       0.70      15.23      51.70
C       1.85      15.47      50.96
C       1.90      15.11      49.60
C       0.77      14.48      49.06
C      14.76      14.28      49.87
C       3.18      15.45      47.47
C       6.85      16.52      47.32
C       6.78      17.44      46.25
C       5.60      17.59      45.52
C       4.45      16.87      45.87
C       4.47      16.04      47.02
C       5.67      15.86      47.72
C       4.66      19.17      36.50
C       5.04      18.55      35.32
C       4.20      18.67      34.20
C       3.00      19.41      34.35
C       2.71      19.99      35.57
C       5.67      17.49      32.53
C      10.49      14.18      24.67
C       9.36      14.43      25.45
C       9.44      15.34      26.52
C      10.66      16.02      26.71
C      11.72      15.72      25.87
C       8.22      16.29      28.50
C       0.74      16.06      24.48
C       1.89      16.14      25.24
C       1.93      15.51      26.51
C       0.79      14.79      26.90
C      14.78      14.76      26.07
C       3.15      15.60      28.69
C       5.63      16.98      31.14
C       6.85      16.85      30.45
C       6.88      16.32      29.15
C       5.68      15.90      28.55
C       4.46      16.00      29.24
C       4.44      16.54      30.54
C      10.77      27.61      50.25
C      11.88      27.11      49.59
C      12.99      27.95      49.39
C      12.90       0.76      49.90
C      11.73       1.17      50.54
C      14.32      26.36      47.96
C       3.60      23.69      39.87
C       3.52      24.31      41.10
C       2.65      23.79      42.08
C       1.90      22.65      41.75
C       2.05      22.10      40.49
C       1.75      24.13      44.40
C       6.65      27.49      51.72
C       5.51      27.25      50.97
C       5.47      27.62      49.61
C       6.60      28.26      49.08
C       7.70      28.46      49.90
C       4.20      27.27      47.47
C       0.54      26.20      47.32
C       0.61      25.27      46.25
C       1.79      25.11      45.52
C       2.95      25.83      45.88
C       2.92      26.67      47.02
C       1.72      26.86      47.72
C       2.78      23.54      36.50
C       2.40      24.15      35.32
C       3.24      24.04      34.19
C       4.44      23.32      34.35
C       4.74      22.74      35.57
C       1.76      25.23      32.54
C      12.07       0.04      24.67
C      13.18      28.31      25.46
C      13.09      27.41      26.54
C      11.86      26.74      26.72
C      10.81      27.03      25.86
C      14.28      26.48      28.54
C       6.71      26.69      24.51
C       5.55      26.61      25.26
C       5.51      27.23      26.53
C       6.64      27.96      26.94
C       7.75      27.99      26.10
C       4.28      27.11      28.71
C       1.79      25.74      31.16
C       0.57      25.88      30.47
C       0.53      26.42      29.17
C       1.73      26.83      28.56
C       2.96      26.71      29.25
C       2.98      26.17      30.55
C      11.77      13.37      21.42
C      10.66      12.87      20.75
C       9.55      13.71      20.54
C       9.64      15.02      21.06
C      10.79      15.44      21.70
C       8.22      12.12      19.12
C       3.90       9.41      11.02
C       3.96      10.02      12.26
C       4.81       9.50      13.25
C       5.57       8.36      12.93
C       5.44       7.82      11.65
C       5.72       9.87      15.55
C       0.79      13.26      22.86
C       1.93      13.01      22.12
C       1.97      13.36      20.75
C       0.83      13.99      20.21
C      14.83      14.20      21.03
C       3.23      12.98      18.61
C       6.91      11.95      18.47
C       6.84      11.03      17.41
C       5.67      10.85      16.68
C       4.50      11.56      17.03
C       4.52      12.40      18.17
C       5.72      12.61      18.86
C       4.73       9.31       7.66
C       5.10       9.93       6.47
C       4.26       9.82       5.35
C       3.06       9.09       5.51
C       2.77       8.50       6.74
C       5.73      11.00       3.69
C      10.43      14.28      53.52
C       9.31      14.03      54.30
C       9.39      13.13      55.38
C      10.63      12.48      55.58
C      11.68      12.78      54.73
C       8.19      12.21      57.37
C       0.69      12.44      53.33
C       1.84      12.36      54.10
C       1.88      12.97      55.37
C       0.74      13.70      55.77
C      14.74      13.73      54.92
C       3.10      12.87      57.56
C       5.69      11.51       2.30
C       6.91      11.64       1.62
C       6.95      12.18       0.32
C       5.64      12.58      57.41
C       4.52      12.49       0.40
C       4.51      11.94       1.70
C      10.82       0.86      21.39
C      11.92       1.37      20.74
C      13.04       0.53      20.54
C      12.96      27.73      21.05
C      11.80      27.31      21.69
C      14.36       2.12      19.11
C       3.64       4.82      11.03
C       3.56       4.19      12.26
C       2.71       4.72      13.25
C       1.98       5.87      12.94
C       2.11       6.42      11.67
C       1.81       4.37      15.57
C       6.71       0.98      22.88
C       5.56       1.22      22.14
C       5.52       0.88      20.77
C       6.66       0.24      20.23
C       7.75       0.02      21.06
C       4.26       1.25      18.63
C       0.58       2.28      18.47
C       0.65       3.20      17.40
C       1.84       3.37      16.67
C       2.99       2.66      17.04
C       2.97       1.83      18.18
C       1.77       1.63      18.87
C       2.82       4.95       7.66
C       2.44       4.34       6.48
C       3.29       4.45       5.36
C       4.49       5.17       5.52
C       4.78       5.75       6.74
C       1.81       3.26       3.71
C      12.02      28.43      53.52
C      13.12       0.17      54.31
C      13.03       1.07      55.39
C      11.80       1.73      55.57
C      10.75       1.44      54.71
C      14.23       1.99      57.39
C       6.65       1.78      53.35
C       5.49       1.86      54.11
C       5.45       1.25      55.38
C       6.58       0.52      55.79
C       7.69       0.49      54.96
C       4.22       1.37      57.56
C       1.84       2.76       2.32
C       0.62       2.61       1.63
C       0.58       2.08       0.33
C       1.68       1.65      57.41
C       3.01       1.79       0.41
C       3.02       2.33       1.71
N       3.12      13.84      35.81
N      10.38      20.18      46.99
N       0.24      14.65      35.35
N       6.61      15.19      37.82
N      10.10      18.30      43.23
N      11.89      15.43      37.67
N      11.39      19.89      49.88
N       3.36      14.79       3.98
N       0.32      15.39       3.98
N      10.44      18.06      53.56
N       6.72      15.53       1.52
N      11.97      15.67       1.55
N       4.27       0.37      35.85
N      12.06      22.57      47.00
N       7.16      28.10      35.32
N       0.77      27.51      37.81
N      12.36      24.44      43.23
N      10.58      27.32      37.67
N      11.02      22.83      49.88
N       4.19      27.95       3.99
N       7.24      27.36       3.96
N      11.99      24.61      53.58
N       0.85      27.23       1.50
N      10.71      27.09       1.57
N       3.18      14.66       6.96
N      10.46       8.31      18.14
N       0.29      13.83       6.51
N       6.66      13.29       8.97
N      10.17      10.17      14.37
N      11.94      13.05       8.82
N      11.47       8.59      21.04
N       3.32      13.69      32.83
N       0.28      13.09      32.82
N      10.52      10.40      24.73
N       6.68      12.96      30.38
N      11.93      12.84      30.40
N       4.35      28.11       6.98
N      12.10       5.90      18.16
N       7.23       0.41       6.49
N       0.86       0.95       8.97
N      12.43       4.03      14.39
N      10.67       1.18       8.82
N      11.06       5.65      21.03
N       4.12       0.55      32.85
N       7.17       1.14      32.77
N      12.05       3.87      24.73
N       0.80       1.26      30.35
N      10.64       1.38      30.39
N      11.81      13.83      50.75
N       4.54      20.17      39.55
N      14.68      14.65      51.18
N       8.34      15.18      48.72
N       4.81      18.28      43.31
N       3.05      15.40      48.87
N       3.52      19.89      36.66
N      11.68      14.80      24.87
N      14.72      15.40      24.87
N       4.48      18.08      32.97
N       8.32      15.53      27.33
N       3.07      15.65      27.28
N      10.65       0.37      50.72
N       2.89      22.58      39.54
N       7.77      28.08      51.21
N      14.14      27.53      48.72
N       2.57      24.45      43.31
N       4.33      27.32      48.87
N       3.93      22.83      36.66
N      10.87      27.93      24.85
N       7.83      27.35      24.91
N       2.95      24.62      32.96
N      14.20      27.22      27.35
N       4.36      27.10      27.31
N      11.88      14.64      21.89
N       4.62       8.31      10.70
N      14.76      13.83      22.34
N       8.39      13.29      19.88
N       4.89      10.16      14.48
N       3.11      13.06      20.01
N       3.58       8.60       7.82
N      11.63      13.68      53.72
N      14.67      13.10      53.72
N       4.54      10.40       4.12
N       8.27      12.94      56.18
N       3.02      12.82      56.15
N      10.71      28.09      21.86
N       2.93       5.93      10.71
N       7.82       0.39      22.36
N      14.19       0.95      19.88
N       2.62       4.05      14.48
N       4.39       1.18      20.03
N       3.97       5.66       7.83
N      10.81       0.53      53.71
N       7.76       1.12      53.75
N       3.00       3.88       4.12
N      14.15       1.26      56.20
N       4.30       1.39      56.16
O       5.87      17.19      38.73
O       8.62      19.65      42.07
O      12.67      15.16      39.85
O       8.26      17.33      53.25
O       5.70      16.79      57.51
O      12.77      15.35      57.14
O       1.48      25.48      38.66
O      13.91      23.13      42.12
O       9.78      27.56      39.84
O      14.19      25.32      53.28
O       1.65      25.90      57.51
O       9.72      27.43      57.15
O       5.91      11.29       9.88
O       8.62       8.87      13.25
O      12.72      13.32      11.00
O       8.31      11.08      24.45
O       5.81      11.56      28.74
O      12.83      13.19      28.29
O       1.60       2.95       9.88
O      14.00       5.31      13.28
O       9.89       0.92      11.00
O      14.24       3.16      24.42
O       1.70       2.58      28.67
O       9.74       1.11      28.27
O       9.08      17.18      47.82
O       6.34      19.59      44.44
O       2.28      15.11      46.69
O       6.68      17.41      33.25
O       9.18      16.92      28.97
O       2.17      15.30      29.39
O      13.40      25.53      47.82
O       1.02      23.14      44.42
O       5.10      27.62      46.69
O       0.76      25.33      33.27
O      13.30      25.89      29.02
O       5.26      27.37      29.42
O       9.13      11.29      18.97
O       6.46       8.88      15.58
O       2.33      13.32      17.84
O       6.74      11.09       4.41
O       9.26      11.63       0.17
O       2.23      13.18       0.58
O      13.45       2.95      18.97
O       1.11       5.39      15.63
O       5.15       0.92      17.85
O       0.81       3.16       4.44
O      13.35       2.59       0.18
O       5.31       1.12       0.58
