11

O       5.93       6.20       1.71
N       3.76       3.55       1.85
Cd       4.91       4.70       0.26
C       5.67       6.44      -2.19
N       6.24       5.50      -1.41
S       7.30       5.52       1.88
C       7.53       5.15      -1.64
O       2.88       5.74      -0.47
S       2.42       4.68      -1.46
C       2.80       2.64       1.60
C       3.94       3.97       3.12
