11

N       3.02       9.24       3.73
N       3.18       9.10       2.42
N       3.37      10.30       1.90
C       3.14      10.54       4.06
C       3.57      12.66       2.49
O       2.98      12.10       5.88
O       2.77       9.92       6.28
O       3.82      13.53       3.33
O       3.46      12.88       1.24
C       2.97      10.90       5.51
C       3.36      11.22       2.88
