20

N       5.90      12.07       5.07
N      11.93       8.41       5.15
H       6.57      12.67       3.33
H       7.35       9.74       6.75
H       8.41      11.30       3.21
H      11.80       8.46       3.21
H       5.54      11.15       6.77
H       9.72       9.45       3.04
H       9.54       9.43       7.06
H      11.62       8.47       7.09
C       6.74      12.09       4.03
C       9.41       9.61       5.04
C       7.23      10.34       6.05
C       7.85      11.27       3.95
C      11.35       8.68       3.99
C       8.13      10.39       5.00
C       6.14      11.19       6.05
C      10.09       9.28       3.88
C       9.99       9.27       6.26
C      11.24       8.68       6.26
