100

H       6.38       5.25       9.31
H       5.66       3.35      -9.78
H       1.93       5.45      -9.43
H       2.85       2.86       9.89
H       2.20       5.56      -7.01
H       2.57       2.65       7.47
H       3.02       7.31      -0.59
H       5.12       0.82       0.73
H       2.00       6.70       1.09
H       5.87       1.30      -1.12
H       6.92       6.98       7.77
H       8.11       5.60       7.73
H       7.95       6.72       6.33
H       6.83       4.54       5.88
H       5.71       5.94       5.84
H       7.73       3.67      -8.95
H       7.67       5.11      -7.86
H       8.56       3.60      -7.38
H       6.55       3.73      -6.13
H       6.45       2.34      -7.27
H       2.88       8.71       2.31
H       1.09       8.40       2.23
H       1.78       9.33       3.59
H       1.20       6.95       4.22
H       2.91       7.47       4.49
H       5.53      -0.50      -2.87
H       5.23      -0.24      -4.65
H       6.85      -0.70      -4.06
H       6.56       1.77      -4.69
H       7.28       1.43      -3.13
H       3.41       9.33      -1.48
H       1.66       8.87      -1.65
H       2.41      10.08      -2.75
H       3.82       8.44      -3.75
H       2.12       7.88      -3.88
H       4.34      -1.11       1.87
H       6.14      -0.96       1.73
H       5.42      -1.93       3.06
H       6.24       0.32       3.82
H       4.50      -0.02       4.15
C       3.85       3.80       2.84
C       4.16       4.35      -2.77
C       3.27       4.85       3.62
C       4.61       3.26      -3.55
C       2.67       5.97       2.96
C       5.30       2.20      -2.94
C       4.44       2.67       3.48
C       3.79       5.57      -3.40
C       4.64       4.08       9.75
C       3.77       4.37      -9.75
C       3.53       5.23      -0.59
C       4.45       2.86       0.66
C       4.57       3.02      -0.75
C       3.34       5.04       0.80
C       4.08       4.20      -1.37
C       3.88       3.90       1.43
C       3.26       6.47      -1.20
C       4.84       1.67       1.31
C       3.37       6.67      -2.59
C       4.85       1.55       2.71
C       4.80       4.20      11.19
C       3.61       4.29     -11.19
C       2.62       5.96       1.57
C       5.27       2.09      -1.55
C       3.31       4.73       5.02
C       4.37       3.31      -4.92
C       4.61       2.73       4.88
C       3.91       5.64      -4.81
C       3.41       3.22       7.87
C       2.98       5.10      -7.60
C       3.57       3.35       9.23
C       2.81       5.02      -8.97
C       5.56       4.69       8.88
C       4.93       3.86      -9.16
C       5.40       4.60       7.49
C       5.14       3.98      -7.78
C       4.31       3.84       7.00
C       4.11       4.55      -6.98
C       6.32       5.30       6.51
C       7.39       6.20       7.14
C       6.44       3.45      -7.20
C       7.67       4.00      -7.90
C       2.16       7.20       3.72
C       1.97       8.48       2.90
C       6.33       1.36      -3.69
C       5.95      -0.11      -3.82
C       2.97       8.03      -3.18
C       2.58       9.14      -2.20
C       5.24       0.22       3.35
C       5.29      -1.01       2.44
N       4.07       3.75       5.59
N       4.15       4.50      -5.54
O       5.99       4.34      11.70
O       2.42       4.17     -11.70
O       3.73       4.11      11.93
O       4.67       4.40     -11.93
O       2.62       5.56       5.82
O       4.33       2.16      -5.63
O       3.78       6.81      -5.46
O       5.35       1.82       5.54
