22

Cr       9.86       5.94       9.35
Cr       6.40       5.89       9.37
Cr       8.24       2.83       9.46
O      10.82       4.82       7.86
O       5.87       4.64      10.82
O       6.87       2.55      10.99
O       9.61       3.00      10.85
O       8.16       4.89       9.39
O       9.02       7.06       7.91
O       6.78       7.25       7.80
O       5.84       4.58       8.01
O       6.83       2.48       7.96
O       9.58       2.93       8.04
O      10.86       4.89      10.90
O       9.05       7.13      10.72
O       6.81       7.33      10.84
C       7.95       7.49       7.33
C       6.09       3.42       7.46
C      10.46       3.66       7.44
C       7.89       6.95      11.41
C       6.11       3.50      11.44
C      10.49       3.79      11.40
