100

V       5.68       2.90      14.08
V       1.44       9.27       7.20
V       5.05       8.98       7.20
V       2.07       3.19      14.08
H       6.37       9.36      20.00
H       0.73       2.80       1.27
H       4.35       3.28       1.27
H       2.79       8.88      20.00
H       6.81       7.98       2.90
H       0.32       4.19      18.38
H       3.92       1.90      18.38
H       3.19      10.27       2.90
H       6.49       8.97      17.64
H       0.62       3.19       3.63
H       4.24       2.89       3.63
H       2.90       9.28      17.64
H       6.60       8.64       0.97
H       0.51       3.52      20.31
H       4.13       2.55      20.31
H       3.01       9.61       0.97
C       3.65       1.36      15.88
C       3.47      10.81       5.39
C       7.08       7.44       5.39
C       0.04       4.73      15.88
C       3.66       1.38      12.22
C       3.46      10.79       9.06
C       7.07       7.46       9.06
C       0.06       4.70      12.22
C      -0.02       5.71      16.96
C       7.14       6.45       4.31
C       3.53      11.79       4.31
C       3.59       0.37      16.96
C       6.72       7.92      17.82
C       0.39       4.24       3.46
C       4.01       1.84       3.46
C       3.13      10.32      17.82
C       6.90       7.07      16.72
C       0.21       5.09       4.55
C       3.83       0.99       4.55
C       3.30      11.18      16.72
C       0.11       5.24      18.27
C       7.01       6.93       3.00
C       3.40      11.32       3.00
C       3.72       0.85      18.27
C      -0.08       6.08      19.39
C       7.19       6.08       1.89
C       3.59       0.00       1.89
C       3.54      12.16      19.38
C       6.83       7.44      19.13
C       0.28       4.72       2.14
C       3.90       1.36       2.14
C       3.24      10.80      19.13
C       0.01       5.62      20.74
C       7.10       6.54       0.54
C       3.50      11.71       0.54
C       3.63       0.46      20.74
C       6.79       7.88       0.23
C       0.32       4.28      21.05
C       3.94       1.80      21.05
C       3.20      10.36       0.23
C       6.61       8.32      20.19
C       0.49       3.84       1.09
C       4.11       2.24       1.09
C       3.03       9.92      20.19
C       7.14       6.49      10.17
C      -0.01       5.68      11.10
C       3.59       0.40      11.10
C       3.53      11.76      10.17
N       0.34       4.57       5.89
N       6.77       7.59      15.39
N       3.18      10.65      15.39
N       3.96       1.51       5.89
O       2.50       1.85      12.67
O       4.62      10.31       8.60
O       1.01       7.94       8.60
O       6.11       4.23      12.67
O       4.87       1.70      15.47
O       2.26      10.46       5.80
O       5.87       7.79       5.80
O       1.26       4.38      15.47
O       6.10       4.25      15.48
O       1.03       7.92       5.79
O       4.64      10.33       5.79
O       2.49       1.83      15.48
O       4.88       1.70      12.68
O       2.24      10.47       8.59
O       5.85       7.78       8.59
O       1.27       4.39      12.68
O       3.70       3.89      14.08
O       3.43       8.28       7.20
O       7.04       9.97       7.20
O       0.09       2.20      14.08
O       1.03       3.48       6.10
O       6.90       5.09       6.88
O       6.07       8.67      15.17
O       0.23       7.08      14.40
O       2.49       9.56      15.17
O       3.84      11.17      14.40
O       4.65       2.59       6.10
O       3.28       1.00       6.88
