153

Co       6.56       7.78       0.01
Co      11.40       1.94       7.51
Co      13.35       9.73       7.50
H      11.59      10.68       0.36
H      12.28      12.08       2.34
H       5.30      11.67       3.40
H       6.77       9.88       2.42
H       6.00       8.40       9.51
H       7.39       9.02      11.50
H      14.77      12.91      11.40
H      13.45      12.14       9.41
H      12.31       3.23      12.35
H       4.88       4.95      11.95
H       5.55       5.47       9.56
H       4.43       4.21       7.71
H       8.39      10.17       0.09
H      13.83      15.72      13.61
H      11.75      13.91      10.30
H      10.74      12.31      11.92
H       8.85       9.09       9.79
H       9.06       6.62      10.31
H      11.17       5.43       9.63
H       3.74       6.74       8.47
H       9.04      16.91       6.81
H      10.70      15.08       7.01
H       7.68      12.75       9.03
H       6.14      14.70       8.78
H       5.88       8.78      14.66
H       5.19       7.38      12.67
H      12.17       7.79      11.62
H      10.69       9.57      12.59
H      11.47      11.06       5.50
H      10.07      10.43       3.52
H       2.69       6.55       3.62
H       4.01       7.32       5.60
H       5.16      16.23       2.67
H      12.59      14.50       3.07
H      11.92      13.99       5.45
H      13.03      15.25       7.31
H       9.08       9.28      14.93
H       3.63       3.73       1.41
H       5.72       5.55       4.72
H       6.72       7.15       3.10
H       8.62      10.36       5.23
H       8.41      12.84       4.71
H       6.30      14.02       5.38
H      13.73      12.71       6.54
H       8.42       2.55       8.21
H       6.76       4.38       8.00
H       9.79       6.70       5.99
H      11.32       4.76       6.24
C       7.45      11.47      12.68
C       8.26      12.57      14.27
C       4.21       9.57       0.37
C       3.33      10.55       0.85
C       3.72      11.32       1.94
C       4.97      11.09       2.54
C       5.79      10.10       2.00
C       5.93       9.39       9.96
C       6.71       9.74      11.05
C       6.61      11.04      11.58
C       5.67      11.91      11.00
C      14.17      11.48       9.90
C      13.58      15.91      10.97
C      14.92      17.41      10.37
C      12.07       2.84      10.25
C      12.65       3.48      11.35
C       4.42       4.43      11.12
C       4.80       4.71       9.80
C       4.18       4.02       8.76
C      12.54      14.05      14.04
C      13.14      14.98      13.21
C      12.88      14.96      11.83
C      11.99      13.98      11.36
C      11.43      13.08      12.26
C      10.18      12.55       8.13
C      10.74      10.57       8.53
C      10.79       9.17       8.89
C       9.74       8.52       9.54
C       9.86       7.16       9.82
C      11.04       6.49       9.44
C      12.04       7.21       8.80
C       8.78      15.97       7.30
C       9.70      14.94       7.42
C       9.33      13.73       8.03
C       8.02      13.67       8.54
C       7.16      14.75       8.40
C      10.01       7.98       2.34
C       9.21       6.89       0.74
C      13.26       9.88      14.65
C      14.14       8.90      14.17
C      13.75       8.14      13.07
C      12.50       8.36      12.48
C      11.68       9.35      13.01
C      11.53      10.07       5.06
C      10.76       9.71       3.97
C      10.86       8.42       3.43
C      11.79       7.55       4.02
C       3.30       7.98       5.11
C       3.89       3.54       4.05
C       2.55       2.05       4.65
C       5.40      16.62       4.77
C       4.82      15.97       3.67
C      13.05      15.03       3.90
C      12.66      14.75       5.22
C      13.29      15.43       6.26
C       4.93       5.40       0.98
C       4.32       4.47       1.81
C       4.58       4.49       3.19
C       5.47       5.47       3.66
C       6.03       6.37       2.76
C       7.29       6.91       6.89
C       6.72       8.88       6.48
C       6.67      10.29       6.12
C       7.73      10.94       5.48
C       7.60      12.30       5.20
C       6.43      12.96       5.57
C       5.43      12.24       6.22
C       8.69       3.48       7.71
C       7.76       4.52       7.60
C       8.14       5.72       6.98
C       9.45       5.79       6.47
C      10.30       4.71       6.62
N       9.15      11.58      13.98
N       8.64      10.86      12.96
N       7.18      12.55      13.47
N       5.43       9.35       0.94
N       5.07      10.25       9.36
N      14.35      16.91       9.23
N      13.48      15.94       9.61
N      14.46      16.82      11.48
N       3.22       3.10       8.97
N      11.69      13.10      13.58
N      11.80      11.14       7.89
N      11.43      12.43       7.61
N       9.71      11.41       8.71
N      11.93       8.53       8.52
N       7.52      15.89       7.78
N       8.31       7.87       1.04
N       8.83       8.59       2.06
N      10.28       6.91       1.54
N      12.04      10.10      14.08
N      12.40       9.21       5.65
N       3.11       2.54       5.79
N       3.98       3.52       5.41
N       3.01       2.63       3.54
N      14.25      16.35       6.05
N       5.77       6.35       1.43
N       5.67       8.31       7.13
N       6.03       7.02       7.40
N       7.75       8.05       6.31
N       5.53      10.93       6.49
N       9.95       3.56       7.24
