26

C       3.67       6.44       1.33
C       4.87       6.74       0.64
C       6.07       6.25       1.19
C       6.09       5.56       2.39
O       3.88       9.95      -4.98
O       6.10      10.24      -4.70
H       2.78       8.77      -3.05
H       2.72       7.47      -0.95
H       7.00       7.84      -0.64
H       7.04       9.01      -2.81
O       3.86       4.29       4.98
O       6.07       4.00       4.70
H       2.76       5.48       3.03
H       2.72       6.78       0.93
H       7.00       6.40       0.66
H       7.03       5.22       2.83
C       4.98       9.77      -4.34
C       4.92       8.97      -3.08
C       3.70       8.53      -2.53
C       3.68       7.80      -1.34
C       4.87       7.50      -0.64
C       6.07       7.98      -1.18
C       6.10       8.68      -2.39
C       4.95       4.47       4.34
C       4.90       5.27       3.08
C       3.69       5.71       2.52
