14

Cu       0.18      10.02       0.42
Cu      -0.02       7.46      -0.17
O      -1.33      10.15      -0.67
O       1.68       9.43       1.37
O       1.24      10.10      -1.10
O      -0.89       9.53       1.88
O      -1.05       7.41       1.36
O       1.07       7.95      -1.59
O       1.48       7.30       0.91
O      -1.50       8.01      -1.13
C      -1.93       9.20      -1.27
C       2.09       8.24       1.50
C       1.52       9.11      -1.85
C      -1.33       8.37       2.14
