14

Cu       0.41      -1.29      10.54
O       1.68      -2.60      10.06
O      -0.99      -0.03      10.47
O      -0.82      -2.64      10.83
O       1.58       0.01       9.94
C      -1.64       0.36       9.44
C       1.75      -3.23       8.95
C       1.79       0.30       8.72
C      -1.54      -3.14       9.92
O      -1.38      -0.16       8.31
Cu      -0.22      -1.54       7.99
O       1.00      -2.90       7.98
O      -1.44      -2.73       8.72
O       1.14      -0.29       7.80
