14

Cu      27.95      -2.85      23.02
Cu      28.10      -2.86      25.65
C      30.12      -1.52      24.29
C      25.94      -4.19      24.48
C      26.72      -0.76      24.37
C      29.34      -4.94      24.24
O      29.50      -1.82      23.22
O      26.41      -3.86      23.35
O      26.93      -1.32      23.25
O      28.98      -4.40      23.15
O      29.04      -4.43      25.36
O      27.17      -1.26      25.45
O      26.53      -3.81      25.54
O      29.66      -1.93      25.40
