14

O      13.28       4.49      18.08
O      15.56       5.05      15.21
Cu      14.44       4.55      16.62
O      12.98       4.73      15.47
O      15.87       4.82      17.78
O      15.53       6.97      18.10
O      15.40       7.23      15.52
O      12.95       6.67      18.22
O      12.83       6.92      15.60
Cu      14.14       7.16      16.89
C      12.72       5.49      18.63
C      15.88       6.23      14.90
C      16.19       5.91      18.35
C      12.44       5.82      15.09
