416

C       4.40       7.44       7.82
C       3.75       8.71       7.64
C       3.08       9.39       8.69
C       3.09       8.78       9.96
C       3.58       7.47      10.15
C       4.18       6.81       9.07
C       5.37       6.86       6.93
C       5.53       7.40       5.64
C       6.71       7.22       4.90
C       7.69       6.33       5.39
C       7.51       5.57       6.57
C       6.33       5.85       7.32
C       8.56       4.70       6.96
C       3.66       6.84      11.40
C       2.68      10.75       8.59
C       6.91       7.96       3.72
C       4.40      22.95      22.56
C       3.74      21.69      22.75
C       3.07      21.00      21.69
C       3.09      21.61      20.42
C       3.58      22.92      20.24
C       4.18      23.58      21.32
C       5.38      23.53      23.45
C       5.54      22.98      24.75
C       6.72      23.16      25.48
C       7.70      24.05      24.99
C       7.51      24.81      23.82
C       6.34      24.53      23.07
C       8.57      25.68      23.43
C       3.67      23.55      18.98
C       2.66      19.64      21.80
C       6.92      22.42      26.66
C       4.40      22.57       7.43
C       3.74      22.75       8.70
C       3.08      21.70       9.39
C       3.08      20.43       8.78
C       3.57      20.24       7.46
C       4.18      21.32       6.81
C       5.38      23.45       6.85
C       5.54      24.75       7.40
C       6.72      25.48       7.22
C       7.69      24.99       6.33
C       7.51      23.82       5.58
C       6.34      23.07       5.85
C       8.57      23.43       4.70
C       3.66      18.99       6.83
C       2.67      21.81      10.74
C       6.92      26.66       7.96
C       4.40       7.83      22.95
C       3.75       7.64      21.68
C       3.08       8.70      21.00
C       3.10       9.97      21.60
C       3.59      10.16      22.92
C       4.19       9.07      23.57
C       5.38       6.94      23.53
C       5.53       5.64      22.98
C       6.71       4.90      23.17
C       7.69       5.39      24.06
C       7.51       6.57      24.81
C       6.34       7.32      24.54
C       8.57       6.95      25.69
C       3.67      11.41      23.55
C       2.67       8.59      19.64
C       6.92       3.72      22.43
C      17.07      22.95       7.82
C      17.72      21.68       7.64
C      18.39      20.99       8.69
C      18.39      21.60       9.96
C      17.89      22.92      10.15
C      17.29      23.57       9.07
C      16.10      23.53       6.93
C      15.94      22.99       5.64
C      14.76      23.17       4.90
C      13.78      24.06       5.39
C      13.97      24.82       6.57
C      15.13      24.54       7.32
C      12.91      25.69       6.96
C      17.81      23.54      11.40
C      18.79      19.63       8.58
C      14.56      22.44       3.72
C      17.07       7.43      22.56
C      17.73       8.70      22.75
C      18.40       9.39      21.70
C      18.39       8.78      20.42
C      17.90       7.47      20.24
C      17.30       6.81      21.32
C      16.10       6.86      23.45
C      15.94       7.41      24.75
C      14.76       7.23      25.48
C      13.78       6.34      24.99
C      13.96       5.58      23.81
C      15.13       5.86      23.07
C      12.90       4.71      23.43
C      17.81       6.84      18.99
C      18.80      10.75      21.80
C      14.55       7.97      26.66
C      17.07       7.82       7.43
C      17.73       7.64       8.70
C      18.40       8.69       9.39
C      18.39       9.96       8.77
C      17.90      10.15       7.46
C      17.30       9.06       6.81
C      16.10       6.93       6.86
C      15.93       5.64       7.41
C      14.75       4.91       7.23
C      13.77       5.40       6.34
C      13.96       6.57       5.58
C      15.13       7.32       5.85
C      12.90       6.96       4.71
C      17.82      11.40       6.83
C      18.80       8.58      10.74
C      14.55       3.74       7.97
C      17.07      22.56      22.95
C      17.73      22.74      21.69
C      18.39      21.69      21.00
C      18.37      20.42      21.61
C      17.88      20.23      22.92
C      17.28      21.31      23.57
C      16.10      23.45      23.53
C      15.94      24.75      22.98
C      14.76      25.49      23.17
C      13.78      25.00      24.06
C      13.96      23.82      24.81
C      15.13      23.07      24.54
C      12.91      23.43      25.69
C      17.80      18.98      23.55
C      18.81      21.80      19.65
C      14.56      26.67      22.43
C      10.70      29.68       8.67
C      11.88      28.87       8.55
C      11.80      27.49       8.20
C      10.50      26.94       8.11
C       9.34      27.70       8.35
C       9.42      29.08       8.62
C      13.13      29.52       8.63
C       8.25      29.88       8.69
C      10.77       0.70       8.67
C      12.05       1.31       8.62
C      12.13       2.69       8.36
C      10.97       3.45       8.12
C       9.67       2.90       8.20
C       9.58       1.51       8.55
C      13.22       0.51       8.69
C       8.33       0.87       8.62
C      10.70       0.70      21.73
C      11.88       1.52      21.84
C      11.79       2.90      22.19
C      10.49       3.45      22.28
C       9.34       2.68      22.03
C       9.42       1.31      21.77
C      13.13       0.88      21.77
C       8.25       0.50      21.70
C      10.77      29.69      21.73
C      12.06      29.08      21.77
C      12.14      27.70      22.04
C      10.98      26.94      22.28
C       9.68      27.49      22.20
C       9.59      28.87      21.84
C      13.22      29.89      21.71
C       8.34      29.51      21.77
C      10.70      21.72      29.68
C      11.89      21.84      28.87
C      11.80      22.19      27.49
C      10.50      22.28      26.94
C       9.34      22.03      27.70
C       9.42      21.76      29.08
C      13.14      21.76      29.52
C       8.26      21.69      29.89
C      10.77      21.72       0.70
C      12.06      21.77       1.31
C      12.13      22.04       2.68
C      10.98      22.28       3.45
C       9.68      22.19       2.90
C       9.59      21.84       1.52
C      13.22      21.70       0.50
C       8.34      21.76       0.87
C      10.70       8.66       0.70
C      11.88       8.55       1.52
C      11.79       8.20       2.90
C      10.49       8.11       3.45
C       9.34       8.35       2.69
C       9.42       8.62       1.31
C      13.13       8.63       0.87
C       8.25       8.68       0.50
C      10.77       8.66      29.69
C      12.05       8.62      29.08
C      12.13       8.35      27.70
C      10.98       8.11      26.94
C       9.68       8.19      27.49
C       9.59       8.54      28.87
C      13.22       8.69      29.89
C       8.34       8.63      29.52
C       0.12      14.49      22.22
C       1.46      14.09      22.39
C       1.73      12.74      22.72
C       0.69      11.79      22.73
C      20.86      12.11      22.39
C      20.57      13.50      22.21
C       2.50      15.05      22.32
C      19.24      13.97      22.20
C      21.35      15.90      22.22
C       0.89      16.88      22.21
C       0.60      18.27      22.39
C      20.78      18.60      22.73
C      19.74      17.64      22.73
C      20.00      16.30      22.39
C       2.22      16.42      22.19
C      18.97      15.34      22.32
C       0.12      15.90       8.17
C       1.46      16.30       8.00
C       1.72      17.65       7.67
C       0.68      18.60       7.66
C      20.86      18.27       8.00
C      20.57      16.88       8.18
C       2.50      15.34       8.07
C      19.24      16.41       8.20
C      21.35      14.49       8.17
C       0.90      13.51       8.18
C       0.62      12.12       8.00
C      20.79      11.78       7.66
C      19.75      12.74       7.66
C      20.01      14.08       8.00
C       2.23      13.98       8.19
C      18.97      15.04       8.07
C       0.12       8.17      14.49
C       1.46       8.00      14.09
C       1.73       7.67      12.74
C       0.69       7.66      11.79
C      20.86       7.99      12.11
C      20.57       8.18      13.50
C       2.50       8.08      15.05
C      19.25       8.19      13.97
C      21.35       8.17      15.90
C       0.90       8.17      16.88
C       0.61       7.99      18.27
C      20.79       7.65      18.60
C      19.74       7.66      17.64
C      20.01       8.00      16.30
C       2.23       8.20      16.41
C      18.97       8.07      15.34
C       0.12      22.22      15.90
C       1.47      22.39      16.30
C       1.73      22.73      17.64
C       0.69      22.74      18.60
C      20.86      22.40      18.27
C      20.58      22.21      16.88
C       2.50      22.32      15.34
C      19.25      22.19      16.42
C      21.35      22.22      14.49
C       0.90      22.21      13.50
C       0.61      22.39      12.11
C      20.79      22.73      11.79
C      19.74      22.72      12.74
C      20.01      22.38      14.09
C       2.23      22.20      13.97
C      18.97      22.31      15.05
H       3.89       9.24       6.79
H       4.47       5.85       9.22
H       2.75       9.31      10.77
H       4.83       8.04       5.26
H       8.53       6.16       4.83
H       6.31       5.42       8.24
H       9.42       4.79       6.40
H       4.41       6.16      11.56
H       2.90      11.36       9.38
H       6.16       8.47       3.26
H       3.88      21.15      23.60
H       4.48      24.54      21.17
H       2.74      21.08      19.62
H       4.84      22.34      25.13
H       8.54      24.21      25.56
H       6.31      24.97      22.15
H       9.43      25.59      23.99
H       4.42      24.23      18.83
H       2.90      19.04      21.01
H       6.16      21.91      27.12
H       3.89      23.60       9.24
H       4.48      21.17       5.84
H       2.74      19.62       9.30
H       4.84      25.13       8.04
H       8.53      25.56       6.17
H       6.31      22.15       5.42
H       9.42      23.99       4.79
H       4.40      18.83       6.15
H       2.92      21.01      11.35
H       6.16      27.12       8.47
H       3.88       6.79      21.15
H       4.49       9.22      24.54
H       2.75      10.78      21.08
H       4.84       5.26      22.34
H       8.53       4.82      24.23
H       6.32       8.24      24.97
H       9.42       6.39      25.60
H       4.42      11.57      24.23
H       2.88       9.38      19.04
H       6.16       3.26      21.92
H      17.58      21.14       6.79
H      16.99      24.54       9.22
H      18.73      21.07      10.77
H      16.64      22.34       5.26
H      12.95      24.23       4.83
H      15.16      24.97       8.24
H      12.05      25.60       6.40
H      17.06      24.23      11.56
H      18.57      19.03       9.38
H      15.31      21.93       3.26
H      17.59       9.24      23.60
H      17.00       5.85      21.17
H      18.73       9.31      19.62
H      16.64       8.05      25.13
H      12.94       6.18      25.55
H      15.16       5.42      22.15
H      12.05       4.80      23.99
H      17.06       6.16      18.83
H      18.58      11.35      21.01
H      15.31       8.47      27.12
H      17.58       6.79       9.24
H      17.00       9.21       5.84
H      18.73      10.77       9.30
H      16.63       5.26       8.05
H      12.93       4.84       6.18
H      15.16       8.24       5.42
H      12.05       6.40       4.80
H      17.07      11.55       6.14
H      18.56       9.38      11.34
H      15.31       3.27       8.48
H      17.59      23.60      21.15
H      16.98      21.16      24.54
H      18.72      19.61      21.08
H      16.64      25.13      22.34
H      12.95      25.57      24.23
H      15.16      22.15      24.97
H      12.05      23.99      25.60
H      17.05      18.82      24.23
H      18.59      21.00      19.04
H      15.32      27.12      21.92
H      10.38      25.95       7.91
H      11.09       4.44       7.91
H      14.15       0.92       8.66
H      14.00      28.99       8.56
H       7.46       1.40       8.55
H       7.32      29.46       8.65
H      10.38       4.44      22.48
H      11.10      25.95      22.49
H      14.15      29.47      21.74
H      14.00       1.41      21.83
H       7.47      28.98      21.84
H       7.32       0.92      21.74
H      10.38      22.48      25.95
H      11.09      22.49       4.44
H      14.15      21.74       0.92
H      14.01      21.84      28.98
H       7.47      21.83       1.41
H       7.32      21.73      29.47
H      10.38       7.90       4.44
H      11.09       7.90      25.95
H      14.15       8.65      29.47
H      14.00       8.55       1.41
H       7.47       8.55      28.98
H       7.32       8.65       0.92
H       0.90      10.83      23.02
H      20.57      19.56      23.03
H       3.01      17.06      22.27
H       3.48      14.78      22.41
H      17.98      15.61      22.41
H      18.46      13.33      22.27
H       0.88      19.56       7.36
H      20.59      10.83       7.36
H       3.02      13.34       8.12
H       3.48      15.62       7.99
H      17.99      14.77       7.98
H      18.45      17.05       8.12
H       0.89       7.36      10.83
H      20.58       7.35      19.56
H       3.02       8.12      17.05
H       3.48       7.98      14.77
H      17.99       7.98      15.61
H      18.46       8.12      13.33
H       0.89      23.04      19.56
H      20.58      23.02      10.83
H       3.02      22.27      13.33
H       3.49      22.41      15.61
H      17.99      22.40      14.78
H      18.46      22.27      17.06
N       8.17      27.10       8.12
N      12.90      26.75       7.82
N       8.57       3.64       7.81
N      13.30       3.29       8.13
N       8.16       3.28      22.27
N      12.89       3.64      22.57
N       8.58      26.75      22.58
N      13.31      27.11      22.27
N       8.17      22.26      27.11
N      12.90      22.58      26.75
N       8.58      22.57       3.64
N      13.31      22.27       3.28
N       8.16       8.12       3.28
N      12.89       7.81       3.64
N       8.58       7.81      26.75
N      13.31       8.13      27.11
N      20.03      11.02      22.32
N       2.94      12.49      23.25
N      18.52      17.90      23.25
N       1.44      19.36      22.32
N      20.02      19.36       8.07
N       2.93      17.91       7.13
N      18.54      12.48       7.13
N       1.45      11.03       8.07
N      20.03       8.07      11.02
N       2.94       7.14      12.49
N      18.53       7.13      17.90
N       1.44       8.06      19.36
N      20.03      22.32      19.36
N       2.95      23.25      17.90
N      18.53      23.25      12.49
N       1.44      22.32      11.02
