12

O      16.78      13.62       8.81
O      15.92      14.16      10.79
O      16.95      14.07      13.49
O      18.85      13.29      14.24
N      20.02      13.10      11.85
N      19.24      13.30       9.75
H      21.12      12.87      10.21
C      20.28      13.06      10.54
C      18.68      13.45      11.93
C      18.20      13.55      10.62
C      16.86      13.79      10.06
C      18.12      13.61      13.26
