12

C      16.31      10.82      13.06
C      14.71       9.44      13.45
C      14.23      10.74      13.55
C      12.89      11.31      13.79
C      14.15       8.10      13.61
H      17.16      11.16      12.87
N      16.05       9.52      13.10
N      15.27      11.61      13.30
O      12.82      12.56      13.62
O      11.95      10.58      14.16
O      12.98       7.88      14.07
O      14.89       7.13      13.29
