12

C      11.47       1.19       3.70
C      13.06       0.79       2.31
C      13.54       0.69       3.62
C      14.88       0.45       4.19
C      13.63       0.63       0.98
O      14.80       0.17       0.75
O      12.89       0.95       0.00
O      14.96       0.62       5.44
O      15.83       0.08       3.45
N      11.73       1.14       2.39
N      12.51       0.95       4.49
H      10.62       1.37       4.04
