12

C      26.23      11.02      11.12
C      24.70      12.35      11.78
C      24.84      11.33      12.72
C      24.23      11.03      14.00
C      23.80      13.50      11.67
H      26.90      10.62      10.60
N      25.82      10.49      12.28
N      25.61      12.16      10.76
O      24.73      10.02      14.65
O      23.25      11.67      14.49
O      22.82      13.61      12.43
O      24.08      14.32      10.75
