12

N       5.92       3.75       1.97
N       6.13       2.09       3.48
O       8.93       0.63       1.82
C       5.51       3.23       3.13
C       7.04       1.90       2.46
C       6.90       2.91       1.53
C       7.52       3.21       0.24
C       7.94       0.74       2.57
O       7.02       4.22      -0.40
O       8.49       2.58      -0.25
H       4.85       3.62       3.65
O       7.67      -0.08       3.50
