22

Cr       1.94      14.12      14.62
Cr       3.61      14.10      11.65
Cr       0.20      14.12      11.68
O       0.55      12.62      14.92
O       3.27      12.71      14.50
C       4.14      12.11      13.79
O       4.55      12.58      12.70
C       1.76      12.10      10.21
C      -0.21      12.15      14.03
O       2.82      12.70      10.54
C       4.24      16.03      13.83
O       0.62      12.61      10.34
O      -0.38      12.73      12.91
C       1.81      16.05      10.04
O       0.58      15.64      14.91
C      -0.21      16.08      14.04
O       3.30      15.50      14.50
O       4.57      15.60      12.69
O       2.85      15.50      10.54
O       0.64      15.63      10.34
O      -0.35      15.53      12.90
O       1.92      14.11      12.65
