22

Cr       7.38      14.11       5.15
Cr       9.05      14.09       2.18
Cr       5.63      14.12       2.21
O       5.99      12.61       5.45
C       9.66      12.17       4.38
O       8.71      12.70       5.03
C       7.21      12.17       0.59
O       9.98      12.58       3.22
C       5.24      12.14       4.55
O       8.26      12.70       1.07
C       9.67      16.03       4.36
O       6.05      12.60       0.87
O       5.06      12.73       3.44
C       7.24      16.05       0.57
O       6.01      15.63       5.44
C       5.75      16.21       4.32
O       8.73      15.50       5.03
O      10.01      15.60       3.22
O       8.28      15.50       1.07
O       6.08      15.62       0.87
O       5.08      15.53       3.43
O       7.35      14.11       3.18
