16

C       3.17       9.40       0.40
C       1.82       9.58       0.09
C       5.20       7.96       0.63
C       3.75       8.13       0.32
C       1.63       7.21      -0.40
C       2.97       7.03      -0.09
C      -0.41       8.65      -0.63
C       1.04       8.48      -0.32
O       5.75       6.83       0.34
H       3.79      10.24       0.70
H       1.36      10.56       0.15
O       5.83       8.95       1.13
O      -0.95       9.78      -0.34
O      -1.04       7.66      -1.13
H       1.01       6.37      -0.70
H       3.43       6.05      -0.15
