16

C       8.21       0.03       5.77
C       9.22       1.00       5.90
H      10.31       2.58       4.92
H       7.98      -0.60       6.63
C       9.97       1.16       7.18
H       6.72      -0.84       4.47
H       9.07       2.32       2.75
C       7.11       0.56       2.18
O       7.34       1.42       1.27
O       6.32      -0.44       2.05
O       9.78       0.28       8.09
O      10.74       2.17       7.29
C       9.52       1.83       4.81
C       8.83       1.70       3.61
C       7.83       0.72       3.48
C       7.51      -0.10       4.57
