64

Zn       0.16      -2.43       8.88
Zn       3.51       7.38       2.81
Zn      -2.19       2.48       5.85
Zn       1.83       2.48       5.85
H      -2.24       5.32       7.30
H       1.93       5.33       7.48
H      -2.28      -0.45       7.33
H       1.89      -0.43       7.15
H       3.66      -3.55       9.73
H       1.74       9.63       0.53
H       4.67      -1.32       9.70
H       5.27       5.28       0.49
H       5.91      -0.37       4.39
H       1.73      -0.38       4.21
H       5.95       5.40       4.36
H       1.77       5.39       4.54
H       0.01       8.51       1.96
H       1.93      -4.68      11.16
H      -1.01       6.27       1.99
H      -1.61      -0.32      11.20
C      -1.21       5.03       7.14
C       0.91       5.04       7.25
C      -1.26      -0.15       7.11
C       0.86      -0.14       7.00
C      -1.69      -3.63      10.06
C      -2.72      -4.31      10.89
C       3.95      -4.17      10.58
C       0.68       9.73       0.31
C       4.39      -0.71      10.56
C       6.33       5.14       0.29
C       3.03      -0.52      10.85
C       1.98      -1.14       9.99
C       4.88      -0.08       4.55
C       2.75      -0.09       4.44
C       4.93       5.11       4.58
C       2.81       5.10       4.69
C       5.35       8.59       1.63
C       6.39       9.26       0.80
C      -0.29       9.13       1.12
C       2.99      -4.78      11.38
C      -0.73       5.67       1.13
C      -2.67      -0.18      11.40
C       0.63       5.48       0.84
C       1.68       6.10       1.70
N      -0.81       3.94       6.49
N       0.57       3.94       6.56
N      -0.17       5.75       7.62
N      -0.93       0.97       6.45
N       0.46       0.97       6.38
N      -0.18      -0.87       7.46
N       4.47       1.02       5.20
N       3.09       1.01       5.13
N       3.84      -0.79       4.07
N       4.59       3.99       5.24
N       3.21       3.98       5.31
N       3.85       5.83       4.23
O      -2.02      -3.00       8.99
O      -0.47      -3.68      10.44
O       2.32      -1.88       8.99
O       0.75      -0.97      10.28
O       5.68       7.95       2.70
O       4.13       8.64       1.25
O       1.34       6.84       2.70
O       2.91       5.93       1.41
