324

C      10.79       0.29      31.57
C       9.73       1.16      31.93
C       8.84       1.66      30.95
C      10.90      25.58      30.18
C       1.18       0.12      32.34
C       2.17      24.78      32.06
C       0.49      22.91      32.32
C      11.39      23.83      32.61
C       0.22      21.52      32.24
C      10.86      21.03      32.41
C       1.62       1.48      32.40
C       2.97       1.87      32.19
C       3.90       0.85      31.92
C       3.51      25.16      31.84
C      11.69      25.33      32.65
C       1.88      23.33      32.04
C       0.64      12.02      31.61
C       1.72      11.17      31.98
C       2.62      10.70      31.00
C       0.52      12.36      30.22
C      10.25      12.11      32.36
C       9.22      13.05      32.07
C      10.82      14.99      32.36
C      11.90      14.11      32.64
C      11.02      16.38      32.34
C       0.35      16.93      32.55
C       9.87      10.73      32.42
C       8.53      10.29      32.22
C       7.57      11.25      31.88
C       7.90      12.61      31.81
C       9.45      14.51      32.06
C       4.92       5.02      32.21
C       4.39       3.78      31.83
C       4.38      18.33      32.38
C       4.73      19.42      31.54
C       5.92      20.16      31.75
C       6.26      21.17      30.86
C       3.18      17.63      32.17
C      10.36       1.01       1.42
C      11.43       0.12       1.13
C       0.30      25.34       2.24
C       0.09       0.15       3.57
C      10.92       0.98       3.80
C      10.10       1.41       2.75
C       8.96       1.27      29.61
C       9.98       0.39      29.20
C       9.79      21.90      32.70
C      10.08      23.29      32.79
C       9.47       1.56       0.38
C       1.07      11.31       1.46
C      11.93      12.18       1.17
C      11.10      12.60       2.27
C      11.32      12.16       3.61
C       0.51      11.36       3.85
C       1.34      10.93       2.80
C       2.49      11.07      29.65
C       1.45      11.93      29.24
C       1.48      16.10      32.75
C       1.25      14.70      32.85
C      11.66      12.60      32.68
C       1.98      10.78       0.42
C       4.75      11.97      17.19
C       3.74      11.07      16.76
C       4.50      11.24      14.36
C       5.50      12.18      14.70
C       6.36      12.63      13.63
C       6.23      12.15      12.30
C       5.21      11.23      12.02
C       4.34      10.79      13.03
C       2.80      10.55      17.67
C       2.82      10.93      19.02
C       3.81      11.80      19.52
C       4.76      12.32      18.58
C       7.11      12.18      16.52
C       8.09      13.17      16.83
C       6.41      15.03      16.54
C       5.38      14.11      16.21
C       6.13      16.41      16.62
C       4.84      16.90      16.42
C       3.77      16.03      16.10
C       4.07      14.64      16.00
C       7.56      10.82      16.45
C       8.91      10.44      16.68
C       9.83      11.46      16.99
C       9.42      12.80      17.09
C       5.69      12.61      16.16
C       7.79      14.61      16.86
C       3.57      10.66      15.35
C       6.68       0.40      17.15
C       7.71       1.28      16.72
C       6.94       1.12      14.32
C       5.91       0.20      14.66
C       5.04      25.41      13.60
C       5.19       0.23      12.26
C       6.24       1.12      11.98
C       7.10       1.55      12.98
C       8.66       1.78      17.63
C       8.63       1.41      18.97
C       7.62       0.56      19.48
C       6.66       0.06      18.55
C       4.31       0.28      16.49
C       3.30      24.99      16.82
C       4.89      23.05      16.50
C       5.96      23.93      16.18
C       5.10      21.66      16.53
C       6.36      21.11      16.29
C       7.48      21.94      16.06
C       7.25      23.34      15.95
C       3.93       1.66      16.42
C       2.59       2.09      16.64
C       1.64       1.13      17.02
C       1.98      25.42      17.11
C       5.72      25.44      16.13
C       3.53      23.53      16.84
C       7.88       1.68      15.31
C       6.39       7.39      32.78
C       5.31       7.00       0.65
C       4.57       5.81       0.39
C       3.56       5.42       1.26
C       3.95       4.74       2.48
C       7.13       8.55       0.09
C       0.42       4.95      16.06
C      11.28       5.34      15.24
C      10.53       6.51      15.51
C      10.88       7.30      16.64
C       9.51       6.89      14.65
C       9.86       7.59      13.42
C       1.17       3.80      15.80
C      10.33       8.54      17.03
C       6.77      19.79      32.83
C       6.92      20.79      29.62
C       8.05      20.29       0.13
C      10.38      19.70      16.43
C      10.74      18.64      17.30
C      11.91      17.87      17.08
C       0.78      18.17      15.95
C       0.33      16.89      18.00
C       1.02      17.30      19.21
C       9.20      20.42      16.64
C       2.05      17.65      15.68
C       2.01       0.31       6.71
C       2.49       1.36       7.53
C       3.00       1.11       8.83
C       3.03      25.41       9.30
C       3.38       2.19       9.62
C       4.47       3.05       9.21
C       1.36       0.62       5.50
C       3.47      25.01      10.58
C       9.42      12.01       6.75
C       8.97      10.97       7.61
C       8.45      11.24       8.90
C       8.39      12.59       9.34
C       8.11      10.18       9.72
C       7.05       9.27       9.34
C      10.07      11.70       5.55
C       7.94      13.02      10.61
C       8.88      25.34      25.83
C       8.13      24.44      25.04
C       7.83      24.73      23.68
C       8.28       0.31      23.13
C       7.12      23.82      22.91
C       7.82      22.67      22.37
C       9.11      25.10      27.19
C       8.09       0.80      21.82
C       2.52      12.64      25.87
C       3.20      13.58      25.06
C       3.51      13.30      23.70
C       3.14      12.04      23.16
C       4.15      14.25      22.92
C       3.34      15.32      22.35
C       2.29      12.87      27.23
C       3.34      11.55      21.86
H       4.90       1.06      31.83
H       4.23      24.45      31.67
H       0.96      20.86      32.00
H      10.70      20.03      32.26
H       8.07       2.28      31.21
H       2.15      22.96      31.04
H       6.59      10.98      31.71
H       7.16      13.28      31.60
H      10.24      17.02      32.16
H       0.45      17.94      32.54
H      11.71      12.99      29.93
H       3.40      10.09      31.26
H       9.17      14.88      31.07
H       4.86       3.31      31.09
H       4.11      19.67      30.76
H       2.62      17.96      31.42
H       9.30      23.93      32.95
H       0.94       2.21      32.65
H       1.09      24.71       2.06
H      10.69       1.29       4.75
H       9.32       2.04       2.96
H      11.64      24.94      29.89
H       8.29       1.63      28.93
H       2.52      22.84      32.77
H       8.45       1.26       0.62
H       9.53       2.65       0.42
H       2.05      14.09       0.07
H      10.58      10.03      32.66
H      10.30      13.20       2.09
H       0.75      11.05       4.80
H       2.13      10.32       3.02
H       3.17      10.72      28.97
H       8.78      14.96      32.80
H       3.00      11.10       0.68
H       1.95       9.69       0.47
H      10.83      11.26      17.10
H      10.13      13.51      17.28
H       6.87      17.08      16.88
H       4.67      17.90      16.58
H       3.29      14.00      15.81
H       6.89      10.10      16.17
H       7.12      13.28      13.84
H       5.08      10.86      11.08
H       3.62      10.11      12.79
H       5.45      12.99      18.92
H       2.05       9.93      17.36
H       2.07      10.58      19.62
H       8.03      14.98      17.86
H       8.45      15.11      16.14
H       2.55      10.92      15.04
H       3.68       9.57      15.31
H       0.67       1.40      17.21
H       1.25      24.74      17.35
H       4.32      21.02      16.74
H       6.46      20.09      16.32
H       8.05      23.95      15.74
H       4.63       2.35      16.15
H       4.27      24.78      13.82
H       6.37       1.48      11.03
H       7.84       2.22      12.74
H       5.95      25.05      18.89
H       9.42       2.39      17.31
H       9.38       1.74      19.58
H       3.29      23.16      17.84
H       2.84      23.07      16.13
H       8.89       1.40      15.00
H       7.80       2.77      15.27
H       5.08       7.56       1.47
H       4.65       3.92       2.26
H       3.08       4.30       2.96
H       4.43       5.43       3.18
H       6.79       9.15       0.81
H      11.04       4.76      14.42
H      10.56       8.40      13.63
H       8.97       8.01      12.96
H      10.33       6.90      12.71
H       0.82       3.19      15.09
H      10.80       9.00      17.78
H       6.22      20.30      28.95
H       7.33      21.68      29.12
H       7.76      20.11      29.82
H       8.68      19.68       0.60
H      10.15      18.43      18.11
H       0.34      17.82      19.89
H       1.43      16.43      19.72
H       1.86      17.97      18.96
H       8.65      20.13      17.43
H       2.69      18.25      15.22
H       2.42       2.33       7.20
H       5.30       2.47       8.82
H       4.83       3.63      10.07
H       4.13       3.75       8.44
H       1.20       1.59       5.33
H       3.07      24.20      11.00
H       9.07      10.00       7.30
H       6.20       9.81       8.93
H       6.70       8.71      10.21
H       7.40       8.56       8.59
H      10.26      10.73       5.41
H       8.32      13.84      11.01
H       7.80      23.56      25.45
H       8.06      21.95      23.16
H       7.20      22.17      21.62
H       8.75      22.98      21.89
H       8.42      24.58      27.68
H       8.37       1.75      21.68
H       3.48      14.49      25.46
H       3.03      16.02      23.13
H       3.91      15.86      21.60
H       2.45      14.91      21.87
H       2.95      13.43      27.71
H       3.09      10.60      21.72
N       8.53      21.42      32.67
N       3.41       3.14      32.40
N       8.16       9.00      32.35
N       5.97       5.49      31.47
N       6.65       6.58      31.72
N      10.05       0.03      27.91
N       0.86      25.44       4.63
N       2.70      16.67      32.89
N       1.36      12.27      27.94
N      10.55      12.51       4.66
N       2.51      16.52      16.12
N       3.74      12.21      20.81
N       7.04      12.38      11.26
N       9.37       9.19      16.45
N       8.70      21.36      15.90
N       7.68       0.15      20.77
N       4.38       0.00      11.22
N       2.21       3.38      16.49
N      11.94       6.85      17.37
N       0.69       5.76      17.12
N       6.36      18.72       0.63
N       5.25      18.05       0.43
N       0.36      19.21      15.17
N      11.21      19.92      15.38
N       2.54      24.47       8.45
N       2.06      24.71       7.25
N       8.85      13.53       8.46
N       9.33      13.27       7.27
N       8.99       1.12      23.97
N       9.27       0.84      25.22
N       2.48      11.20      24.02
N       2.19      11.47      25.27
O       5.46      22.09      30.76
O       2.63       6.20       1.36
O       8.58       6.10      14.54
O      11.46      15.98      18.14
O       2.45       2.73      10.20
O       9.05       9.67      10.32
O       5.97      23.61      23.28
O       5.27      14.57      23.29
