23

Zn       7.55       6.19       4.38
Zn       9.13       3.44       4.38
Zn       9.13       5.27       1.79
Zn      10.72       6.19       4.38
C       9.13       8.20       5.80
C       9.13       2.35       1.66
C      11.67       3.81       5.80
C       6.60       6.74       1.66
C      11.67       6.74       1.66
C       6.60       3.81       5.80
O       9.13       5.27       3.73
O       7.97       7.72       5.46
O       9.13       2.15       2.95
O       9.13       3.50       1.05
O      10.30       7.72       5.46
O      10.67       3.04       5.46
O       7.60       6.16       1.05
O       6.43       6.83       2.95
O      11.83       5.06       5.46
O      10.67       6.16       1.05
O       6.43       5.06       5.46
O       7.60       3.04       5.46
O      11.83       6.83       2.95
