12

C       5.73       0.75      13.40
C       4.24       0.57      11.35
H       5.96       1.82      13.32
H       6.70       0.24      13.67
H       3.48       1.30      11.55
O       5.15       0.94      15.66
O       3.79      -0.27      14.31
N       5.28       0.24      12.11
N       6.01      -0.74      11.48
N       5.41      -0.95      10.33
N       4.32      -0.16      10.23
C       4.78       0.45      14.52
