12

N       6.31      12.11       8.36
N       7.04      11.48       9.33
N       6.45      10.32       9.53
N       5.36      10.22       8.75
C       5.79      14.52       8.16
C       6.75      13.40       7.86
C       5.27      11.34       8.03
H       6.98      13.33       6.79
H       7.72      13.67       8.37
H       4.50      11.54       7.30
O       6.15      15.66       7.67
O       4.81      14.30       8.90
