74

Gd       1.08       1.40       3.63
Gd       0.13       6.84       2.43
Gd       4.05      11.54      10.60
Gd       5.00      10.71       5.09
Gd       8.93      14.03       6.98
Gd       9.88       8.59       8.17
Gd       5.95       3.89       0.01
Gd       5.00       4.72       5.51
H       2.69      12.19       7.36
H       2.44       4.19       1.87
H       7.32       3.24       3.24
H       7.57      11.24       8.74
C       2.30      12.37       6.35
C       2.83       5.07       1.34
C       7.71       3.06       4.25
C       7.18      10.36       9.27
S       9.43       3.47       1.01
S       8.58      10.65       5.47
S       5.45      13.24       7.73
S       6.30       6.51       2.62
S       0.57      11.96       9.60
S       1.42       4.78       5.14
S       4.56       2.19       2.88
S       3.71       8.92       7.99
S       2.57       9.59       2.57
S       7.44       5.84       8.03
O       7.25      10.22       4.92
O       1.21      12.98       6.19
O       9.50      11.03       4.35
O       0.39       2.32       1.64
O       9.48       4.66       1.93
O       2.94      11.95       5.33
O       8.03       3.08       0.77
O       0.51       7.89      10.34
O       1.58       8.51       2.91
O       9.18       9.48       6.19
O       1.83      10.87       2.42
O       8.37      11.78       6.43
O       7.64       7.18       2.83
O       3.92       5.01       0.70
O       5.39       7.42       1.87
O       4.74      13.07       9.03
O       5.40      11.96       6.95
O       2.19       6.18       1.36
O       6.86      13.61       8.01
O       4.62       2.95       6.95
O       3.55       9.67       3.71
O       5.71       6.25       3.98
O       3.30       9.28       1.32
O       6.51       5.21       1.91
O       2.76       5.21       5.69
O       8.80       2.45       4.42
O       0.51       4.40       6.26
O       9.62      13.11       8.97
O       0.53      10.77       8.68
O       7.07       3.48       5.28
O       1.98      12.35       9.84
O       9.50       7.54       0.27
O       8.43       6.92       7.70
O       0.83       5.95       4.41
O       8.18       4.56       8.19
O       1.64       3.64       4.18
O       2.37       8.25       7.78
O       6.08      10.42       9.91
O       4.62       8.01       8.74
O       5.27       2.36       1.58
O       4.60       3.47       3.66
O       7.82       9.25       9.25
O       3.15       1.82       2.60
O       5.39      12.48       3.66
O       6.45       5.76       6.90
O       4.30       9.18       6.63
O       6.71       6.15       9.29
O       3.49      10.22       8.70
