9

C      10.82       2.80       2.77
C       8.85       2.60       1.86
H       7.82       2.77       1.59
H      11.71       3.85       4.25
H      12.66       2.63       3.56
N       9.55       1.55       1.49
N       9.59       3.44       2.67
N      10.80       1.66       2.07
N      11.91       3.31       3.41
