9

C      -6.67      11.62      23.57
C      -5.82      10.19      22.22
N      -6.52      11.36      22.24
N      -6.12      10.69      24.32
N      -5.56       9.75      23.46
N      -5.40       9.61      21.04
H      -7.19      12.49      23.96
H      -5.14       8.63      21.14
H      -6.03       9.79      20.26
