9

N       6.33       3.31      15.52
C       7.42       2.79      14.87
C       9.37       2.58      13.95
N       7.41       1.67      14.15
N       8.66       1.55      13.56
N       8.65       3.41      14.77
H      10.41       2.75      13.69
H       6.54       3.82      16.37
H       5.58       2.63      15.67
