9

H       2.85      10.42      10.55
H       0.14       7.58       7.72
H       0.53       6.19       8.56
N       2.99       8.30      10.68
N       1.40       9.24       9.44
N       2.27       7.29      10.06
C       2.47       9.44      10.28
C       1.32       7.87       9.33
N       0.34       7.20       8.64
