9

N      -2.26       7.28      14.13
N      -0.33       7.18      15.56
C      -1.31       7.85      14.87
C      -2.45       9.43      13.92
H      -2.83      10.41      13.66
H      -0.14       7.56      16.49
H      -0.51       6.18      15.63
N      -2.97       8.29      13.52
N      -1.39       9.23      14.77
