9

N       5.58       9.75      11.36
N       5.42       9.62       8.94
H       7.22      12.49      11.86
H       5.17       8.64       9.04
H       6.05       9.80       8.16
C       6.70      11.63      11.47
C       5.85      10.20      10.11
N       6.55      11.37      10.14
N       6.14      10.70      12.22
