9

N      -2.97       8.28      22.78
N      -1.38       9.22      21.54
N      -2.26       7.27      22.16
N      -0.33       7.18      20.74
H      -2.83      10.41      22.66
H      -0.12       7.57      19.83
H      -0.52       6.18      20.65
C      -1.31       7.85      21.43
C      -2.45       9.43      22.39
