9

H      11.98       5.45       1.58
H       9.26       8.31       4.38
H       9.64       9.69       3.53
N      12.11       7.57       1.44
N      10.52       6.64       2.68
N      11.39       8.59       2.04
N       9.46       8.68       3.46
C      10.44       8.01       2.78
C      11.59       6.43       1.84
