9

H      -1.51       8.16      10.47
H      -2.53      12.07       7.82
H      -4.02      12.33       8.55
N      -3.43       9.07      10.59
N      -1.81      10.04       9.42
C      -2.17       8.98      10.22
N      -3.95      10.22      10.02
C      -2.97      10.80       9.32
N      -3.06      12.00       8.68
