9

H      10.64       7.68      13.71
N      10.95       5.81      14.78
N      12.57       6.77      13.59
N      12.21       3.86      15.52
N      13.09       5.63      14.17
H      11.67       3.77      16.37
H      13.17       3.53      15.64
C      12.11       5.06      14.87
C      11.31       6.87      13.97
