174

C      16.03       9.28       9.36
C       3.72       9.27      28.13
C       3.28       9.98       1.11
C       2.03      10.65       1.13
C       1.23      10.70      28.11
C       1.68      10.02      26.95
C       2.89       9.28      26.99
C       4.97       8.56      28.13
C       5.42       7.84       1.11
C       6.66       7.17       1.14
C       7.46       7.12      28.11
C       7.01       7.81      26.95
C       5.81       8.55      26.99
C      -5.26       9.30      10.50
C      -4.06      10.04      10.52
C      -3.62      10.71       9.34
C      -4.43      10.67       8.18
C      -5.68      10.00       8.22
C      14.80       8.55       9.36
C      13.95       8.52      10.50
C      12.75       7.78      10.52
C      12.31       7.11       9.34
C      13.13       7.16       8.18
C      14.37       7.83       8.22
C      -1.18      17.78      18.74
C      -1.58      17.04      19.88
C      -1.54      15.63      19.90
C      -1.18      14.91      18.73
C      -0.81      15.64      17.57
C      -0.77      17.05      17.60
C       9.88       0.05      18.74
C      10.27       0.79      19.88
C      10.23       2.20      19.90
C       9.88       2.92      18.73
C       9.51       2.19      17.56
C       9.47       0.77      17.60
C       8.58       6.16      22.74
C       9.18       3.85      22.92
C       8.52       3.80      24.17
C       7.91       6.11      23.98
C       9.75       2.63      22.31
C       7.13       7.23      24.53
C      10.92       6.62       3.97
C       8.62       7.26       4.15
C       8.90       7.85       5.40
C      11.20       7.23       5.21
C       7.27       7.38       3.54
C      12.57       7.35       5.76
C      10.15       4.37      13.35
C      11.85       6.04      13.53
C      12.22       5.50      14.78
C      10.53       3.82      14.60
C      12.62       7.15      12.93
C       9.95       2.57      15.14
C       0.11      11.66      22.73
C      -0.48      13.97      22.92
C       0.17      14.02      24.17
C       0.78      11.72      23.98
C      -1.05      15.20      22.31
C       1.57      10.59      24.53
C      -2.22      11.20       3.97
C       0.08      10.57       4.15
C      -0.21       9.97       5.40
C      -2.51      10.60       5.21
C       1.42      10.45       3.54
C      -3.88      10.48       5.76
C      -1.45      13.46      13.35
C      -3.15      11.78      13.54
C      -3.53      12.33      14.78
C      -1.83      14.01      14.60
C      -3.93      10.68      12.93
C      -1.25      15.25      15.15
H      16.61       8.78      11.34
H      15.87      10.03       7.39
H       3.86      10.02       1.95
H       5.54       9.08      26.15
H       8.95       5.94       0.72
H       9.19       6.38      27.30
H      -0.50      11.44      27.30
H      -0.26      11.88       0.72
H       3.16       8.75      26.15
H       4.83       7.81       1.95
H       8.16       8.71      25.57
H       6.48       5.73       2.53
H       0.53       9.11      25.57
H       2.21      12.09       2.53
H      14.96       7.80       7.39
H      10.54       6.41      10.11
H      10.80       5.98       8.54
H      -2.11      11.84       8.54
H      -1.85      11.41      10.11
H      14.22       9.04      11.34
H      13.33       5.71       6.81
H      11.59       8.65      11.91
H      -4.64      12.12       6.81
H      -2.90       9.17      11.91
H      -1.90      17.53      20.72
H       9.14       0.28      16.77
H      10.15       4.80      19.49
H       9.65       4.79      17.92
H      -0.96      13.04      17.92
H      -1.46      13.03      19.49
H      -0.45      17.55      16.77
H      10.59       0.30      20.72
H       8.15       2.73      16.19
H      11.57       2.77      21.29
H       0.55      15.09      16.19
H      -2.87      15.06      21.29
H       8.59       7.02      22.18
H       8.46       2.94      24.70
H       8.91       1.96      22.09
H      10.37       2.12      23.05
H       6.12       6.86      24.73
H       7.02       8.03      23.78
H      11.65       6.18       3.41
H       8.18       8.34       5.94
H       7.12       8.44       3.32
H       6.52       7.09       4.29
H      12.75       8.41       5.96
H      13.31       7.04       5.02
H       9.40       3.95      12.79
H      13.00       5.88      15.32
H      13.62       6.75      12.71
H      12.75       7.94      13.67
H      10.77       1.89      15.34
H       9.31       2.09      14.40
H       0.10      10.81      22.18
H       0.23      14.89      24.70
H      -0.21      15.86      22.09
H      -1.68      15.70      23.06
H       2.58      10.96      24.72
H       1.67       9.80      23.78
H      -2.96      11.64       3.41
H       0.51       9.49       5.94
H       1.57       9.39       3.32
H       2.17      10.73       4.29
H      -4.06       9.42       5.96
H      -4.62      10.79       5.02
H      -0.71      13.87      12.79
H      -4.31      11.94      15.32
H      -4.93      11.08      12.70
H      -4.06       9.89      13.67
H      -2.08      15.94      15.35
H      -0.62      15.74      14.40
N       0.06      11.39      28.09
N       8.63       6.43      28.10
N       7.78       7.78      25.75
N       7.09       6.53       2.33
N       0.91      10.05      25.75
N       1.60      11.29       2.33
N      -2.43      11.39       9.33
N      11.12       6.44       9.33
N      12.71       6.51       6.99
N      11.98       7.72      11.71
N      -4.02      11.32       6.99
N      -3.29      10.10      11.71
N      -1.19      13.54      18.71
N       9.89       4.28      18.71
N       9.15       2.87      16.37
N      10.57       2.90      21.09
N      -0.46      14.96      16.37
N      -1.88      14.93      21.09
N       9.17       5.04      22.25
N       7.91       4.92      24.64
N       9.65       6.67       3.49
N      10.17       7.82       5.88
N      10.82       5.44      12.87
N      11.56       4.41      15.26
N      -0.48      12.79      22.25
N       0.78      12.91      24.64
N      -0.96      11.16       3.49
N      -1.48      10.01       5.88
N      -2.13      12.38      12.87
N      -2.86      13.41      15.26
