1140

H       1.18      25.13     118.28
H       0.49      25.16     116.01
H       1.16      26.14     111.30
H       2.45      26.91     109.48
H       5.49      28.15     112.13
H       4.70      27.20     117.24
H       2.25      29.24     114.31
H       4.27      32.70     115.62
H       6.26      31.44     115.93
H       5.01      24.85     113.98
H       8.88      27.36     115.48
H       9.12      25.08     114.92
H       1.48      25.07     113.63
H       0.73      26.67     113.84
H       7.49      29.44     114.82
H       7.05      28.99     116.48
H       3.79      26.90     119.74
H       5.61      28.64     109.61
H       6.44      22.79     114.03
H       1.06      31.53     114.87
H      -0.42      23.70      35.32
H      -0.04      24.29      33.05
H       0.48      23.21      28.34
H       0.49      21.71      26.52
H       0.05      18.46      29.17
H      -0.39      19.62      34.28
H       2.61      20.72      31.35
H       4.59      17.24      32.67
H       2.51      16.15      32.97
H      -2.58      20.53      31.02
H      -2.33      15.92      32.51
H      -4.43      16.85      31.96
H      -0.61      23.47      30.67
H       1.14      23.32      30.88
H       0.17      16.08      31.86
H      -0.01      16.69      33.52
H      -0.19      20.56      36.78
H       0.41      18.11      26.65
H      -5.07      20.32      31.06
H       5.19      20.61      31.91
H      -0.85      25.80      76.80
H      -0.53      25.19      74.54
H      -1.72      25.28      69.82
H      -3.03      26.01      68.00
H      -5.63      28.02      70.66
H      -4.41      27.82      75.77
H      -4.95      24.67      72.83
H      -8.96      24.70      74.15
H      -8.86      27.04      74.45
H      -2.52      29.26      72.50
H      -6.63      31.35      74.00
H      -4.78      32.70      73.44
H      -0.95      26.09      72.16
H      -1.96      24.65      72.37
H      -7.74      29.11      73.34
H      -7.13      28.96      75.00
H      -3.69      27.18      78.27
H      -6.11      27.88      68.14
H      -1.46      31.52      72.54
H      -6.34      22.50      73.40
H      20.29      12.17     118.23
H      21.01      12.10     115.98
H      20.39      11.07     111.26
H      19.10      10.30     109.44
H      16.02       9.13     112.07
H      16.75      10.14     117.18
H      19.21       8.02     114.30
H      17.12       4.62     115.66
H      15.15       5.91     115.91
H      16.53      12.46     113.89
H      12.57       9.99     115.21
H      12.37      12.25     114.57
H      20.05      12.17     113.58
H      20.77      10.57     113.83
H      13.97       7.89     114.71
H      14.36       8.39     116.38
H      17.65      10.44     119.68
H      15.92       8.61     109.55
H      14.98      14.35     113.22
H      20.36       5.72     114.88
H      21.91      13.63      35.26
H      21.50      13.04      33.01
H      20.91      14.11      28.30
H      20.88      15.61      26.47
H      21.41      18.86      29.11
H      21.92      17.71      34.22
H      18.86      16.65      31.34
H      16.96      20.15      32.71
H      19.06      21.21      32.96
H      24.04      16.75      30.93
H      23.88      21.41      32.26
H      25.94      20.46      31.61
H      22.04      13.85      30.61
H      20.29      14.02      30.86
H      21.36      21.25      31.76
H      21.60      20.66      33.42
H      21.74      16.79      36.72
H      21.01      19.21      26.59
H      26.45      17.15      30.26
H      16.29      16.80      31.91
H      22.36      11.51      76.74
H      22.06      12.16      74.48
H      23.28      12.13      69.77
H      24.59      11.40      67.95
H      27.14       9.32      70.58
H      25.89       9.45      75.69
H      26.50      12.64      72.82
H      30.49      12.53      74.18
H      30.36      10.18      74.43
H      24.00       8.10      72.40
H      28.12       5.91      73.74
H      26.27       4.60      73.09
H      22.49      11.29      72.09
H      23.51      12.72      72.33
H      29.23       8.17      73.24
H      28.61       8.26      74.90
H      25.18      10.08      78.19
H      27.64       9.49      68.07
H      23.14       5.81      71.73
H      27.92      14.78      73.39
H      22.95      12.28      47.70
H      22.41      12.33      50.02
H      23.41      11.34      54.73
H      24.79      10.45      56.44
H      27.38       8.85      53.52
H      26.33       9.90      48.53
H      24.04       7.99      51.55
H      25.94       4.48      50.18
H      27.94       5.70      49.79
H      26.87      12.32      51.75
H      30.65       9.76      50.09
H      30.93      12.05      50.62
H      23.61      12.34      52.34
H      22.68      10.83      52.22
H      29.25       7.69      50.84
H      28.76       8.14      49.19
H      25.52      10.33      46.19
H      27.93       8.72      55.92
H      28.28      14.35      51.57
H      22.78       5.74      51.03
H      20.93      13.76       6.20
H      21.17      13.26       8.51
H      21.55      14.59      13.23
H      21.65      16.22      14.95
H      21.71      19.28      12.05
H      21.31      17.87       7.05
H      24.12      16.82      10.06
H      26.21      20.22       8.70
H      24.16      21.35       8.31
H      18.95      17.12      10.26
H      19.29      21.68       8.63
H      17.16      20.78       9.16
H      20.57      14.28      10.84
H      22.34      14.22      10.71
H      21.78      21.50       9.37
H      21.63      20.85       7.72
H      21.33      16.97       4.70
H      21.54      19.80      14.46
H      16.50      17.33      10.11
H      26.71      16.86       9.52
H      20.70      11.26      89.20
H      21.00      11.71      91.52
H      19.64      11.35      96.22
H      18.16      10.60      97.93
H      15.49       9.16      95.01
H      16.94       9.54      90.02
H      16.43      12.48      93.04
H      12.44      12.60      91.66
H      12.49      10.26      91.27
H      18.75       7.86      93.23
H      14.64       5.88      91.58
H      16.48       4.48      92.11
H      20.40      10.67      93.83
H      19.57      12.23      93.71
H      13.55       8.13      92.32
H      14.19       8.32      90.67
H      17.72      10.04      87.68
H      15.10       8.76      97.40
H      19.80       5.63      93.07
H      15.11      14.71      92.51
H      -1.49      25.04      47.74
H      -0.91      25.03      50.05
H      -1.83      26.07      54.76
H      -3.21      26.97      56.48
H      -5.86      28.50      53.59
H      -4.89      27.38      48.60
H      -2.57      29.37      51.55
H      -4.53      32.82      50.12
H      -6.52      31.57      49.78
H      -5.35      25.01      51.88
H      -9.20      27.51      50.33
H      -9.46      25.25      50.97
H      -2.06      25.04      52.39
H      -1.15      26.55      52.22
H      -7.79      29.60      50.91
H      -7.33      29.10      49.27
H      -4.12      26.94      46.25
H      -6.37      28.64      55.98
H      -6.90      23.16      52.46
H      -1.35      31.64      51.02
H       0.57      23.52       6.25
H       0.28      24.04       8.56
H      -0.17      22.73      13.27
H      -0.27      21.09      15.00
H      -0.25      18.03      12.11
H       0.24      19.42       7.11
H      -2.65      20.43      10.06
H      -4.66      17.01       8.63
H      -2.58      15.92       8.29
H       2.51      20.21      10.39
H       2.27      15.62       8.85
H       4.36      16.52       9.50
H       0.85      23.04      10.90
H      -0.92      23.07      10.73
H      -0.25      15.80       9.42
H      -0.04      16.44       7.78
H       0.24      20.30       4.76
H      -0.13      17.51      14.51
H       4.90      19.80      10.97
H      -5.23      20.36       9.52
H       0.85      26.04      89.22
H       0.55      25.55      91.53
H       1.90      25.85      96.24
H       3.36      26.59      97.96
H       6.02      28.12      95.07
H       4.57      27.82      90.07
H       5.14      24.83      93.04
H       9.10      24.80      91.61
H       9.01      27.14      91.26
H       2.75      29.41      93.35
H       6.84      31.49      91.79
H       5.01      32.85      92.43
H       1.13      26.56      93.86
H       1.98      25.02      93.71
H       7.94      29.23      92.38
H       7.28      29.08      90.74
H       3.81      27.36      87.74
H       6.41      28.49      97.46
H       1.91      31.68      93.92
H       6.48      22.64      92.51
H       6.71      29.13     104.71
H       6.28      29.16     107.07
H       6.19      25.29     102.73
H       6.33      25.19     100.35
H       5.48      29.31     100.11
H       3.85      25.74     106.68
H       5.33      29.42     102.50
H       4.27      25.70     104.33
H       0.28      16.92      21.74
H       0.53      17.27      24.11
H      -2.79      19.28      19.78
H      -2.96      19.22      17.40
H       1.04      17.90      17.15
H      -1.23      21.08      23.72
H       1.22      17.97      19.53
H      -1.47      20.75      21.37
H      -7.07      28.60      63.23
H      -6.89      28.20      65.60
H      -3.49      30.05      61.25
H      -3.47      30.22      58.87
H      -6.62      27.44      58.63
H      -2.72      27.79      65.20
H      -6.65      27.26      61.02
H      -2.89      28.17      62.85
H      14.83       8.13     104.66
H      15.27       8.09     107.02
H      15.34      11.96     102.67
H      15.19      12.06     100.29
H      16.04       7.93     100.06
H      17.69      11.52     106.62
H      16.20       7.83     102.45
H      17.27      11.55     104.27
H      21.13      20.38      21.69
H      20.88      20.03      24.06
H      24.22      18.05      19.73
H      24.39      18.11      17.35
H      20.38      19.39      17.09
H      22.67      16.23      23.67
H      20.20      19.32      19.48
H      22.91      16.57      21.32
H      28.61       8.80      63.17
H      28.42       9.20      65.54
H      25.05       7.30      61.19
H      25.03       7.13      58.81
H      28.16       9.95      58.58
H      24.24       9.55      65.13
H      28.17      10.13      60.96
H      24.42       9.17      62.79
H       8.54      18.44     113.57
H       7.30      20.48     113.65
H      12.68      18.56     112.23
H      13.94      16.54     112.51
H      11.27      15.30     115.54
H      10.91      22.67     113.71
H      10.02      17.32     115.28
H      12.16      20.63     113.66
H      -9.89      20.68      30.60
H      -7.50      20.73      30.69
H      31.26      17.03      29.28
H      28.88      16.95      29.55
H      29.13      19.90      32.57
H      -7.42      16.51      30.76
H      31.50      19.97      32.31
H      33.31      16.45      30.71
H       1.26      35.52      72.08
H       0.11      33.42      72.17
H      20.64       1.71      70.75
H      21.76       3.81      71.03
H      24.18       2.12      74.05
H      -3.58      35.46      72.23
H      23.05       0.03      73.79
H      19.11       0.22      72.18
H      30.08      18.72      52.09
H      28.98      16.60      52.00
H      -8.91      18.87      53.40
H      -7.80      20.98      53.15
H     -10.54      22.06      50.12
H      32.73      14.67      51.86
H      31.47      19.95      50.35
H      -9.27      16.78      51.92
H      11.81      16.70      10.64
H      14.19      16.82      10.54
H       9.62      20.21      11.88
H       7.23      20.12      11.64
H       7.67      17.14       8.67
H      13.98      21.03      10.31
H      10.04      17.25       8.90
H      11.60      20.92      10.38
H      22.69       1.89      93.60
H      21.40       3.89      93.51
H      -0.81      35.56      94.85
H       0.47      33.55      94.59
H       2.82      35.41      91.62
H      17.85       1.60      93.29
H      23.09       0.08      91.85
H      -2.41      36.93      93.35
H      -1.45      35.68     114.54
H      -0.40      33.54     114.79
H      22.85       1.57     114.44
H      21.82       3.71     114.71
H      18.24       2.19     113.07
H       3.07      35.05     112.92
H      19.27       0.05     112.79
H       2.02      37.18     112.66
H      10.03      20.71      31.59
H       7.66      20.86      31.83
H      11.46      16.72      31.48
H      13.82      16.54      31.75
H      14.29      20.40      30.11
H       7.23      17.11      29.96
H      11.93      20.58      29.83
H       9.60      16.95      29.70
H      -8.67      18.25      73.06
H      -7.35      20.23      73.31
H      30.27      19.02      72.96
H      28.93      17.05      73.22
H      32.04      14.71      71.59
H     -10.39      22.48      71.44
H      33.38      16.68      71.31
H     -11.71      20.51      71.18
H      20.15       1.68      51.36
H      21.27       3.77      51.10
H       1.25      35.70      51.47
H       0.15      33.60      51.18
H      -3.39      35.23      52.79
H      24.71       2.16      52.95
H      -2.29      37.33      53.10
H      23.59       0.07      53.23
H      31.53      16.62       9.86
H      29.16      16.54       9.61
H     -10.04      20.57       9.98
H      -7.67      20.68       9.69
H      -7.31      16.79      11.30
H      28.83      20.30      11.48
H      33.43      16.68      11.60
H      31.20      20.38      11.75
H      12.90      19.01      92.85
H      14.15      16.99      92.59
H       8.71      18.36      92.96
H       7.43      20.36      92.67
H      10.61      22.61      94.29
H      11.05      14.82      94.45
H      11.89      20.62      94.59
H       9.80      16.83      94.72
H       2.41      25.72     124.38
H       2.69      26.54     122.14
H       4.40      22.09       1.04
H       3.87      21.16       3.19
H       0.14      23.12       3.13
H       3.61      22.65     120.83
H       0.66      24.05       0.99
H       3.35      21.82     123.05
H      -0.52      22.34      41.42
H       0.05      21.69      39.18
H      -4.65      22.45      42.53
H      -5.19      23.36      44.67
H      -1.63      25.62      44.62
H      -3.78      22.84      37.87
H      -1.08      24.70      42.47
H      -4.36      23.49      40.09
H      -1.99      26.57      82.91
H      -2.84      26.41      80.67
H       0.19      30.09      84.02
H       1.26      30.09      86.16
H       1.40      25.88      86.10
H       0.08      29.14      79.35
H       0.33      25.87      83.96
H       0.93      29.31      81.58
H      19.07      11.60     124.31
H      18.77      10.78     122.08
H      17.13      15.25       0.99
H      17.67      16.17       3.13
H      21.38      14.18       3.05
H      17.88      14.68     120.77
H      20.84      13.25       0.91
H      18.17      15.50     122.99
H      22.02      14.99      41.36
H      21.46      15.65      39.12
H      26.15      14.83      42.48
H      26.67      13.90      44.62
H      23.08      11.69      44.55
H      25.28      14.45      37.81
H      22.55      12.62      42.41
H      25.85      13.79      40.04
H      23.49      10.73      82.83
H      24.34      10.88      80.59
H      21.28       7.23      83.95
H      20.22       7.24      86.10
H      20.11      11.45      86.03
H      21.38       8.18      79.29
H      21.18      11.45      83.89
H      20.53       8.02      81.51
C       5.66      26.76     114.61
C       6.80      27.49     115.04
C       5.46      29.59     115.27
C       4.29      28.92     114.81
C       3.10      29.69     114.65
C       3.08      31.09     114.89
C       4.25      31.70     115.41
C       5.42      30.96     115.59
C       8.06      26.85     115.15
C       8.19      25.50     114.82
C       7.09      24.74     114.37
C       5.83      25.39     114.29
C       3.43      26.78     115.59
C       2.20      26.17     115.26
C       2.56      26.66     112.81
C       3.81      27.26     113.08
C       2.08      26.56     111.49
C       2.85      27.01     110.42
C       4.13      27.57     110.62
C       4.58      27.72     111.96
C       3.82      26.77     116.97
C       3.04      26.13     117.97
C       1.80      25.57     117.59
C       1.39      25.59     116.25
C       4.30      27.43     114.52
C       1.68      26.12     113.87
C       6.75      28.91     115.43
C       4.90      27.96     109.52
C       7.23      23.40     114.05
C       3.41      26.09     119.31
C       1.97      31.86     114.62
C      -1.24      19.01      31.65
C      -1.19      17.66      32.08
C       1.31      17.77      32.31
C       1.31      19.12      31.85
C       2.57      19.75      31.70
C       3.79      19.07      31.94
C       3.74      17.76      32.45
C       2.51      17.12      32.63
C      -2.36      16.89      32.19
C      -3.60      17.44      31.86
C      -3.70      18.78      31.40
C      -2.52      19.55      31.33
C      -0.11      20.93      32.63
C      -0.02      22.30      32.29
C       0.23      21.74      29.85
C       0.12      20.35      30.12
C       0.38      22.21      28.53
C       0.39      21.32      27.46
C       0.23      19.93      27.66
C       0.14      19.46      29.00
C      -0.32      20.60      34.01
C      -0.48      21.60      35.01
C      -0.35      22.95      34.63
C      -0.12      23.30      33.29
C       0.02      19.85      31.56
C       0.19      22.77      30.91
C       0.07      16.99      32.47
C       0.17      19.06      26.56
C      -4.94      19.33      31.09
C      -0.70      21.29      36.35
C       5.02      19.66      31.67
C      -4.51      28.86      73.13
C      -5.70      29.49      73.57
C      -6.85      27.28      73.80
C      -5.69      26.60      73.34
C      -5.77      25.19      73.18
C      -6.96      24.47      73.42
C      -8.08      25.18      73.93
C      -8.02      26.56      74.11
C      -5.78      30.90      73.68
C      -4.68      31.69      73.34
C      -3.47      31.11      72.89
C      -3.40      29.70      72.81
C      -3.41      26.93      74.12
C      -2.26      26.16      73.78
C      -2.87      26.23      71.34
C      -4.02      27.01      71.61
C      -2.54      25.86      70.02
C      -3.31      26.30      68.94
C      -4.44      27.13      69.15
C      -4.80      27.44      70.49
C      -3.59      27.27      75.49
C      -2.65      26.91      76.50
C      -1.54      26.12      76.11
C      -1.35      25.75      74.78
C      -4.40      27.35      73.04
C      -1.96      25.74      72.40
C      -6.91      28.74      73.95
C      -5.16      27.61      68.04
C      -2.38      31.91      72.57
C      -2.80      27.26      77.84
C      -7.07      23.12      73.15
C      15.84      10.56     114.51
C      14.67       9.85     114.91
C      15.99       7.74     115.23
C      17.17       8.39     114.78
C      18.35       7.59     114.65
C      18.34       6.20     114.92
C      17.16       5.62     115.43
C      16.00       6.38     115.58
C      13.42      10.49     114.93
C      13.30      11.83     114.56
C      14.44      12.58     114.18
C      15.70      11.93     114.17
C      18.05      10.52     115.54
C      19.30      11.11     115.21
C      18.97      10.59     112.77
C      17.70      10.00     113.03
C      19.46      10.66     111.45
C      18.70      10.21     110.37
C      17.41       9.67     110.57
C      16.94       9.54     111.91
C      17.65      10.56     116.91
C      18.43      11.19     117.91
C      19.67      11.74     117.54
C      20.10      11.69     116.21
C      17.19       9.87     114.46
C      19.83      11.13     113.83
C      14.69       8.44     115.33
C      16.64       9.30     109.46
C      14.32      13.92     113.82
C      18.04      11.24     119.25
C      19.44       5.40     114.66
C      22.74      18.30      31.55
C      22.71      19.66      31.96
C      20.23      19.58      32.28
C      20.19      18.23      31.82
C      18.92      17.61      31.69
C      17.72      18.31      31.96
C      17.80      19.62      32.48
C      19.04      20.25      32.63
C      23.89      20.43      31.98
C      25.11      19.86      31.60
C      25.19      18.50      31.22
C      24.00      17.74      31.21
C      21.60      16.40      32.58
C      21.49      15.03      32.24
C      21.20      15.58      29.81
C      21.33      16.97      30.07
C      21.02      15.11      28.49
C      21.01      16.00      27.41
C      21.19      17.39      27.61
C      21.31      17.86      28.95
C      21.84      16.73      33.95
C      22.00      15.74      34.95
C      21.85      14.38      34.57
C      21.59      14.04      33.24
C      21.47      17.47      31.50
C      21.24      14.56      30.87
C      21.48      20.35      32.38
C      21.25      18.25      26.50
C      26.41      17.94      30.85
C      22.24      16.04      36.29
C      16.48      17.75      31.70
C      25.99       8.45      73.03
C      27.19       7.79      73.43
C      28.35       9.99      73.75
C      27.21      10.69      73.30
C      27.31      12.11      73.16
C      28.51      12.80      73.43
C      29.61      12.07      73.95
C      29.53      10.68      74.10
C      27.26       6.39      73.46
C      26.16       5.62      73.08
C      24.94       6.23      72.70
C      24.88       7.64      72.68
C      24.92      10.38      74.05
C      23.79      11.17      73.72
C      24.41      11.14      71.28
C      25.54      10.34      71.54
C      24.09      11.54      69.96
C      24.87      11.10      68.89
C      25.98      10.25      69.08
C      26.32       9.91      70.42
C      25.08      10.02      75.42
C      24.14      10.38      76.42
C      23.05      11.19      76.05
C      22.87      11.58      74.72
C      25.91       9.96      72.97
C      23.50      11.62      72.34
C      28.40       8.52      73.85
C      26.69       9.77      67.98
C      23.85       5.45      72.33
C      24.29      10.02      77.76
C      28.65      14.15      73.17
C      27.48      10.39      51.10
C      28.59       9.66      50.62
C      27.20       7.58      50.46
C      26.06       8.27      50.96
C      24.87       7.52      51.17
C      24.81       6.12      50.94
C      25.95       5.49      50.39
C      27.12       6.20      50.16
C      29.84      10.29      50.45
C      30.01      11.64      50.77
C      28.92      12.40      51.26
C      27.67      11.77      51.41
C      25.21      10.43      50.26
C      24.06      11.15      50.68
C      24.57      10.64      53.10
C      25.73       9.92      52.73
C      24.24      10.81      54.46
C      25.05      10.28      55.47
C      26.21       9.53      55.15
C      26.53       9.37      53.77
C      25.50      10.41      48.86
C      24.71      11.10      47.91
C      23.57      11.79      48.36
C      23.24      11.81      49.72
C      26.11       9.75      51.27
C      23.67      11.27      52.10
C      28.50       8.23      50.25
C      27.03       9.07      56.17
C      29.07      13.75      51.55
C      24.99      11.10      46.55
C      23.68       5.38      51.24
C      20.32      18.61       9.63
C      20.40      19.94       9.15
C      22.90      19.77       8.98
C      22.87      18.44       9.48
C      24.11      17.78       9.68
C      25.35      18.42       9.45
C      25.34      19.73       8.91
C      24.13      20.39       8.68
C      19.24      20.72       8.99
C      17.98      20.19       9.30
C      17.86      18.86       9.79
C      19.03      18.09       9.93
C      21.41      16.62       8.76
C      21.36      15.27       9.18
C      21.56      15.95      11.60
C      21.61      17.32      11.24
C      21.60      15.57      12.96
C      21.66      16.54      13.97
C      21.72      17.91      13.66
C      21.69      18.28      12.29
C      21.29      16.90       7.37
C      21.08      15.87       6.41
C      21.05      14.54       6.86
C      21.20      14.24       8.22
C      21.56      17.75       9.78
C      21.46      14.87      10.60
C      21.68      20.58       8.78
C      21.72      18.85      14.69
C      16.61      18.32      10.08
C      20.94      16.13       5.05
C      26.56      17.81       9.75
C      16.78       8.30      92.59
C      15.59       7.71      92.11
C      14.48       9.96      91.95
C      15.65      10.60      92.45
C      15.60      12.00      92.66
C      14.43      12.75      92.42
C      13.31      12.09      91.87
C      13.33      10.71      91.64
C      15.50       6.31      91.94
C      16.59       5.49      92.26
C      17.79       6.04      92.75
C      17.87       7.45      92.89
C      17.96      10.25      91.74
C      19.16      10.88      92.17
C      18.45      10.70      94.59
C      17.24      10.05      94.22
C      18.76      10.90      95.95
C      17.89      10.46      96.96
C      16.67       9.83      96.63
C      16.36       9.64      95.26
C      17.79      10.00      90.35
C      18.79      10.34      89.40
C      19.96      10.98      89.85
C      20.13      11.25      91.22
C      16.91       9.80      92.75
C      19.45      11.15      93.59
C      14.40       8.50      91.73
C      15.85       9.35      97.66
C      18.88       5.24      93.04
C      18.65      10.09      88.04
C      14.35      14.10      92.73
C      -5.98      26.92      51.20
C      -7.12      27.63      50.74
C      -5.75      29.72      50.49
C      -4.59      29.06      50.99
C      -3.41      29.82      51.17
C      -3.38      31.21      50.91
C      -4.52      31.82      50.35
C      -5.69      31.09      50.15
C      -8.37      27.00      50.65
C      -8.52      25.66      51.03
C      -7.42      24.91      51.48
C      -6.16      25.55      51.55
C      -3.73      26.89      50.31
C      -2.56      26.19      50.71
C      -3.03      26.73      53.14
C      -4.21      27.44      52.78
C      -2.67      26.59      54.50
C      -3.48      27.12      55.51
C      -4.65      27.85      55.20
C      -5.00      27.99      53.83
C      -4.05      26.89      48.92
C      -3.26      26.19      47.96
C      -2.10      25.53      48.40
C      -1.75      25.53      49.76
C      -4.63      27.58      51.32
C      -2.15      26.10      52.13
C      -7.05      29.05      50.32
C      -5.47      28.30      56.23
C      -7.56      23.58      51.85
C      -3.56      26.19      46.60
C      -2.26      31.98      51.20
C       1.18      18.70       9.72
C       1.13      17.36       9.26
C      -1.37      17.51       9.00
C      -1.37      18.84       9.50
C      -2.62      19.48       9.68
C      -3.84      18.82       9.41
C      -3.80      17.52       8.86
C      -2.58      16.87       8.66
C       2.30      16.59       9.17
C       3.54      17.12       9.55
C       3.64      18.46      10.00
C       2.45      19.24      10.07
C       0.08      20.67       8.82
C       0.10      22.03       9.22
C      -0.14      21.35      11.65
C      -0.16      19.98      11.29
C      -0.20      21.74      13.01
C      -0.26      20.77      14.02
C      -0.30      19.40      13.71
C      -0.25      19.02      12.34
C       0.24      20.39       7.43
C       0.46      21.41       6.47
C       0.45      22.75       6.91
C       0.27      23.06       8.27
C      -0.07      19.55       9.84
C      -0.03      22.43      10.64
C      -0.13      16.72       8.84
C      -0.29      18.46      14.75
C       4.86      19.00      10.37
C       0.61      21.16       5.11
C      -5.06      19.40       9.71
C       4.71      29.01      92.68
C       5.90      29.63      92.21
C       7.02      27.40      91.97
C       5.87      26.74      92.47
C       5.94      25.33      92.66
C       7.13      24.60      92.39
C       8.23      25.29      91.84
C       8.18      26.67      91.63
C       5.98      31.04      92.12
C       4.90      31.84      92.49
C       3.69      31.26      92.94
C       3.61      29.85      93.02
C       3.56      27.07      91.78
C       2.37      26.41      92.19
C       3.08      26.55      94.62
C       4.28      27.22      94.26
C       2.78      26.32      95.98
C       3.64      26.75      96.99
C       4.85      27.41      96.68
C       5.15      27.63      95.31
C       3.72      27.34      90.39
C       2.73      27.00      89.43
C       1.58      26.33      89.88
C       1.40      26.04      91.24
C       4.61      27.51      92.80
C       2.09      26.10      93.61
C       7.09      28.87      91.80
C       5.66      27.89      97.71
C       2.61      32.05      93.32
C       2.88      27.26      88.07
C       7.24      23.26      92.70
C       5.05      27.44     107.10
C       4.48      26.44     106.28
C       4.73      26.42     104.89
C       5.55      27.40     104.28
C       6.11      28.40     105.11
C       5.87      28.42     106.50
C       5.75      27.37     102.86
C       6.05      26.16     102.20
C       6.14      26.09     100.79
C       5.93      27.24     100.00
C       5.65      28.46     100.66
C       5.58      28.53     102.06
C      -0.35      19.20      24.14
C      -0.93      20.19      23.32
C      -1.08      19.99      21.94
C      -0.64      18.79      21.32
C      -0.05      17.80      22.15
C       0.09      18.00      23.54
C      -0.77      18.62      19.90
C      -1.98      18.97      19.24
C      -2.08      18.93      17.84
C      -0.98      18.54      17.04
C       0.22      18.17      17.69
C       0.32      18.20      19.10
C      -4.78      27.99      65.62
C      -3.64      27.99      64.80
C      -3.74      28.22      63.42
C      -5.00      28.45      62.80
C      -6.15      28.44      63.63
C      -6.04      28.22      65.03
C      -5.08      28.64      61.38
C      -4.17      29.50      60.72
C      -4.16      29.61      59.32
C      -5.05      28.86      58.52
C      -5.98      28.01      59.18
C      -6.00      27.92      60.59
C      16.50       9.82     107.04
C      17.06      10.81     106.22
C      16.81      10.83     104.84
C      15.99       9.85     104.23
C      15.43       8.85     105.06
C      15.67       8.84     106.45
C      15.78       9.88     102.81
C      15.48      11.09     102.14
C      15.38      11.15     100.74
C      15.59      10.00      99.95
C      15.87       8.78     100.60
C      15.95       8.72     102.01
C      21.78      18.11      24.09
C      22.36      17.12      23.27
C      22.51      17.33      21.88
C      22.07      18.52      21.27
C      21.47      19.51      22.10
C      21.33      19.31      23.49
C      22.20      18.69      19.85
C      23.40      18.35      19.19
C      23.51      18.39      17.79
C      22.40      18.77      16.99
C      21.20      19.13      17.64
C      21.10      19.10      19.05
C      26.31       9.38      65.56
C      25.17       9.37      64.74
C      25.27       9.14      63.35
C      26.53       8.92      62.74
C      27.68       8.95      63.57
C      27.57       9.16      64.97
C      26.62       8.73      61.32
C      25.72       7.86      60.65
C      25.71       7.75      59.25
C      26.60       8.51      58.46
C      27.52       9.37      59.12
C      27.53       9.47      60.53
C       9.00      21.76     113.66
C      10.40      21.78     113.63
C      11.14      20.58     113.60
C      10.47      19.34     113.59
C       9.05      19.32     113.57
C       8.32      20.52     113.61
C      11.22      18.13     113.72
C      12.38      17.89     112.95
C      13.13      16.71     113.11
C      12.73      15.75     114.07
C      11.58      15.99     114.85
C      10.84      17.17     114.68
C      -7.24      18.62      30.70
C      -7.93      17.39      30.68
C      -9.33      17.36      30.65
C     -10.08      18.56      30.63
C      -9.38      19.79      30.61
C      -7.97      19.83      30.64
C      31.61      18.52      30.76
C      30.82      17.63      29.99
C      29.43      17.57      30.15
C      28.80      18.40      31.10
C      29.57      19.28      31.88
C      30.96      19.33      31.72
C      -1.84      34.25      72.17
C      -2.56      35.46      72.15
C      -1.89      36.69      72.11
C      -0.48      36.74      72.11
C       0.24      35.52      72.09
C      -0.43      34.29      72.12
C      21.75       0.66      72.23
C      21.37       1.79      71.46
C      22.02       3.02      71.62
C      23.05       3.16      72.58
C      23.42       2.04      73.36
C      22.77       0.81      73.19
C      30.76      15.44      51.94
C      32.16      15.51      51.95
C      32.81      16.76      51.99
C      32.06      17.96      52.02
C      30.65      17.87      52.07
C      30.00      16.63      52.02
C     -10.39      19.21      51.91
C      -9.26      19.53      52.69
C      -8.60      20.77      52.54
C      -9.06      21.70      51.59
C     -10.19      21.39      50.81
C     -10.84      20.16      50.96
C      14.31      18.94      10.44
C      13.53      20.11      10.42
C      12.13      20.05      10.47
C      11.47      18.80      10.53
C      12.26      17.62      10.60
C      13.66      17.69      10.55
C      10.06      18.73      10.43
C       9.22      19.57      11.19
C       7.82      19.52      11.05
C       7.24      18.63      10.12
C       8.07      17.80       9.35
C       9.46      17.85       9.49
C      19.50       2.93      93.41
C      18.87       1.67      93.39
C      19.63       0.49      93.44
C      21.04       0.54      93.49
C      21.67       1.81      93.56
C      20.91       2.99      93.51
C       0.25      36.69      93.38
C      -0.06      35.54      94.15
C       0.69      34.35      94.00
C       1.75      34.29      93.07
C       2.05      35.43      92.30
C       1.31      36.61      92.45
C       1.42      34.09     113.83
C       2.10      35.16     113.21
C       1.48      36.41     113.07
C       0.17      36.63     113.56
C      -0.52      35.54     114.14
C       0.09      34.28     114.28
C      21.17       0.61     113.57
C      21.90       1.70     114.09
C      21.29       2.96     114.25
C      19.94       3.15     113.88
C      19.23       2.08     113.32
C      19.83       0.82     113.16
C       7.22      19.02      30.87
C       7.81      17.90      30.25
C       9.20      17.80      30.11
C      10.05      18.82      30.60
C       9.45      19.97      31.18
C       8.06      20.07      31.32
C      11.46      18.66      30.61
C      12.04      17.48      31.13
C      13.44      17.37      31.29
C      14.28      18.44      30.92
C      13.71      19.60      30.36
C      12.31      19.71      30.20
C      -8.73      21.53      72.36
C     -10.00      21.59      71.74
C     -10.78      20.43      71.59
C     -10.31      19.18      72.08
C      -9.02      19.12      72.66
C      -8.24      20.29      72.80
C      31.95      18.04      72.09
C      30.63      18.12      72.61
C      29.84      16.97      72.77
C      30.35      15.71      72.39
C      31.64      15.62      71.83
C      32.43      16.78      71.68
C      23.08       3.17      52.04
C      23.73       2.09      52.67
C      23.07       0.85      52.82
C      21.75       0.67      52.34
C      21.09       1.78      51.76
C      21.75       3.02      51.61
C      -0.40      36.72      52.33
C       0.29      35.60      51.81
C      -0.35      34.36      51.64
C      -1.71      34.21      52.00
C      -2.39      35.31      52.56
C      -1.75      36.54      52.73
C      28.77      18.39      10.56
C      29.38      19.50      11.19
C      30.78      19.55      11.33
C      31.60      18.50      10.85
C      30.97      17.37      10.27
C      29.57      17.32      10.12
C     -10.09      18.63      10.84
C      -9.48      19.79      10.33
C      -8.08      19.86      10.15
C      -7.27      18.76      10.50
C      -7.87      17.61      11.06
C      -9.27      17.55      11.23
C      12.74      15.73      93.54
C      11.47      15.70      94.16
C      10.73      16.89      94.31
C      11.23      18.12      93.84
C      12.52      18.14      93.25
C      13.27      16.96      93.10
C      10.42      19.29      93.83
C       9.10      19.24      93.30
C       8.35      20.41      93.13
C       8.89      21.66      93.49
C      10.18      21.71      94.05
C      10.94      20.54      94.22
C       3.24      24.68     121.29
C       3.42      23.32     121.58
C       3.26      22.83     122.89
C       2.88      23.69     123.95
C       2.71      25.07     123.65
C       2.90      25.56     122.34
C       2.58      23.17       0.80
C       3.49      22.31       1.46
C       3.19      21.76       2.73
C       1.95      22.03       3.35
C       1.03      22.88       2.69
C       1.35      23.45       1.44
C      -1.83      22.14      38.33
C      -3.10      22.68      38.62
C      -3.44      23.06      39.93
C      -2.50      22.96      40.99
C      -1.23      22.42      40.69
C      -0.90      22.01      39.38
C      -2.81      23.48      42.28
C      -4.01      23.12      42.95
C      -4.33      23.66      44.21
C      -3.48      24.60      44.84
C      -2.28      24.96      44.18
C      -1.95      24.40      42.93
C      -1.51      27.81      79.81
C      -0.40      28.64      80.11
C       0.10      28.74      81.42
C      -0.46      27.98      82.47
C      -1.57      27.15      82.18
C      -2.09      27.07      80.87
C       0.15      27.98      83.77
C       0.45      29.19      84.44
C       1.07      29.20      85.70
C       1.46      27.99      86.32
C       1.16      26.77      85.66
C       0.51      26.77      84.41
C      18.23      12.64     121.23
C      18.07      14.01     121.52
C      18.24      14.50     122.83
C      18.62      13.63     123.88
C      18.78      12.25     123.59
C      18.58      11.76     122.28
C      18.93      14.15       0.74
C      18.04      15.02       1.40
C      18.35      15.56       2.67
C      19.59      15.29       3.28
C      20.49      14.42       2.62
C      20.16      13.86       1.37
C      23.35      15.18      38.27
C      24.61      14.62      38.56
C      24.94      14.24      39.88
C      24.00      14.35      40.93
C      22.73      14.91      40.63
C      22.41      15.32      39.32
C      24.30      13.82      42.23
C      25.50      14.16      42.90
C      25.80      13.62      44.16
C      24.94      12.69      44.78
C      23.74      12.34      44.12
C      23.42      12.91      42.86
C      22.98       9.49      79.74
C      21.87       8.67      80.04
C      21.37       8.58      81.35
C      21.94       9.34      82.40
C      23.06      10.15      82.10
C      23.58      10.22      80.79
C      21.34       9.34      83.70
C      21.03       8.13      84.37
C      20.41       8.13      85.64
C      20.04       9.34      86.26
C      20.35      10.56      85.60
C      20.99      10.55      84.34
N       5.93      27.07      98.68
N       4.68      27.42     108.37
N      -1.13      18.63      15.72
N      -0.18      19.53      25.41
N      -4.90      28.95      57.20
N      -4.59      27.68      66.89
N      15.58      10.17      98.62
N      16.87       9.83     108.32
N      22.56      18.68      15.67
N      21.60      17.78      25.36
N      26.46       8.42      57.14
N      26.11       9.69      66.83
N      13.28      14.57     114.21
N       8.41      22.92     113.87
N      27.49      18.51      31.24
N      -5.95      18.55      30.92
N      23.80       4.23      72.72
N      -2.55      33.17      72.40
N      -8.57      22.91      51.44
N      30.24      14.24      51.73
N       5.94      18.46       9.96
N      15.60      19.09      10.23
N       2.54      33.26      92.91
N      18.73       3.97      93.20
N      19.24       4.23     114.18
N       2.14      33.03     114.13
N      15.56      18.52      31.23
N       5.95      18.92      31.18
N      29.77      14.56      72.70
N      -8.18      22.69      72.66
N      -2.44      33.16      51.67
N      23.84       4.20      51.72
N      -6.00      18.65      10.18
N      27.50      18.54      10.24
N       8.35      22.82      93.17
N      13.25      14.55      93.22
N       1.73      21.52       4.56
N       3.16      25.03     120.01
N      -3.81      25.04      46.05
N      -1.49      22.04      37.05
N       2.01      28.05      87.53
N      -1.76      27.56      78.53
N      19.82      15.79       4.50
N      18.30      12.29     119.95
N      25.26      12.24      45.99
N      23.01      15.28      36.99
N      19.50       9.29      87.48
N      23.25       9.73      78.46
