174

Cd       0.00       0.00       0.00
Cd      -0.02       8.18       0.00
H      13.19       5.21      15.73
H       6.61       4.29      13.61
H       6.24       6.19      12.02
H      12.71       7.17      14.26
H      12.66      10.79      10.09
H      12.60       9.99      11.64
H      12.02       8.29       9.18
H      11.33       8.13      10.76
H       3.38       8.42       7.95
H       5.09       7.95       7.89
H       5.82       9.78       9.18
H       4.38      10.76       8.83
H       6.81      10.30      11.21
H       9.64       8.95      14.19
H       7.86       9.29      15.90
H       5.15      10.56      13.05
H      13.49       8.59      12.64
H      10.29       9.22      11.99
H       8.17       5.65       0.36
H       1.59       6.58       2.47
H      11.26       4.68       4.06
H       7.70       3.68       1.83
H       7.63      16.45       6.01
H       7.61       0.87       4.45
H       7.04       2.59       6.91
H       6.34       2.74       5.33
H       8.41       2.46       8.14
H      10.12       2.92       8.20
H      10.80      17.48       6.90
H       9.38      16.48       7.25
H       1.79      16.93       4.88
H       4.65       1.92       1.90
H       2.87       1.58       0.19
H      10.13      16.68       3.05
H       8.50       2.26       3.43
H       5.30       1.65       4.10
H       1.79      13.84       0.36
H       8.37      14.76       2.48
H       8.74      12.86       4.07
H       2.27      11.88       1.83
H       2.32       8.26       6.00
H       2.38       9.06       4.45
H       2.96      10.76       6.91
H       3.65      10.92       5.33
H      11.60      10.63       8.14
H       9.89      11.10       8.20
H       9.17       9.27       6.91
H      10.60       8.29       7.26
H       8.17       8.75       4.88
H       5.35      10.10       1.90
H       7.12       9.76       0.19
H       9.84       8.49       3.04
H       1.50      10.46       3.45
H       4.69       9.83       4.10
H       6.82      13.40      15.73
H      13.39      12.47      13.62
H       3.73      14.37      12.03
H       7.28      15.37      14.26
H       7.36       2.60      10.08
H       7.37      18.18      11.64
H       7.95      16.46       9.18
H       8.64      16.31      10.76
H       6.57      16.60       7.95
H       4.87      16.13       7.89
H       4.18       1.57       9.19
H       5.60       2.57       8.84
H      13.19       2.13      11.21
H      10.33      17.13      14.19
H      12.11      17.47      15.90
H       4.85       2.37      13.04
H       6.49      16.79      12.66
H       9.68      17.40      11.99
C      13.85       5.47      14.90
C       5.75       4.95      13.72
C       5.55       6.00      12.82
C      13.58       6.54      14.07
C       4.42       6.83      12.99
C       4.67       8.24      10.95
C      12.75       9.81      10.57
C      11.63       8.87      10.02
C       4.41       8.80       7.86
C       4.73       9.74       9.05
C       9.32       9.88      10.27
C       7.07      10.05      12.23
C       8.36       9.60      12.55
C       8.65       9.29      13.89
C       7.66       9.48      14.85
C       6.15      10.20      13.26
C       8.83       5.39       1.18
C       0.73       5.92       2.36
C      10.56       4.87       3.26
C       8.57       4.32       2.01
C       9.43       4.04       3.09
C       9.68       2.64       5.13
C       7.76       1.06       5.52
C       6.64       2.00       6.08
C       9.43       2.07       8.22
C       9.72      17.50       7.04
C       4.34       0.99       5.83
C       2.08       0.82       3.86
C       3.38       1.27       3.55
C       3.66       1.58       2.20
C       2.67       1.39       1.25
C       1.17       0.67       2.84
C       1.13      13.58       1.19
C       9.23      14.10       2.37
C       9.43      13.05       3.27
C       1.40      12.51       2.02
C      10.56      12.22       3.10
C      10.31      10.81       5.14
C       2.23       9.24       5.52
C       3.35      10.18       6.07
C      10.58      10.25       8.23
C      10.25       9.31       7.04
C       5.66       9.17       5.82
C       7.91       9.00       3.86
C       6.62       9.45       3.54
C       6.34       9.76       2.20
C       7.32       9.57       1.24
C       8.83       8.85       2.83
C       6.15      13.66      14.91
C      14.25      13.13      13.73
C       4.43      14.18      12.83
C       6.41      14.73      14.08
C       5.55      15.01      13.00
C       5.30      16.41      10.96
C       7.22      17.99      10.57
C       8.34      17.05      10.01
C       5.55      16.98       7.87
C       5.27       1.55       9.05
C      10.64      18.06      10.26
C      12.90      18.23      12.23
C      11.61      17.78      12.54
C      11.32      17.47      13.89
C      12.31      17.66      14.84
C      13.81      18.38      13.25
Br       7.62       0.83       1.71
Br      12.60      10.03      14.38
Br       7.36      18.22      14.38
Br       2.38       9.02       1.71
N       4.91       4.66      14.74
N       4.10       9.33      10.31
N       4.07       7.90      12.17
N       6.43       9.94      14.55
N      10.46       9.60       9.54
N       9.38       9.46      11.61
N       9.91       6.20       1.34
N       9.13       1.53       5.77
N       9.09       2.96       3.91
N       1.44       0.93       1.55
N       5.47       1.27       6.56
N       4.39       1.40       4.48
N      10.07      14.39       1.35
N      10.88       9.72       5.78
N      10.91      11.15       3.92
N       8.55       9.11       1.54
N       4.52       9.45       6.55
N       5.60       9.59       4.48
N       5.08      12.85      14.75
N       5.86      17.52      10.32
N       5.89      16.09      12.18
N      13.54      18.12      14.54
N       9.51      17.78       9.53
N      10.59      17.65      11.61
O       5.63       7.63      10.47
O       8.35      10.46       9.78
O      10.62       3.27       5.62
O       3.33      16.78       6.32
O       9.35      11.42       5.62
O       6.63       8.59       6.31
O       4.36      15.78      10.47
O      11.66       2.27       9.77
