69

H      -2.41       4.68      10.30
H      -2.38       6.44      12.03
H       0.82       8.41       9.90
H       0.75       6.64       8.16
H      -5.21      13.21       8.87
H      -4.66      11.33      10.44
H      -0.52      11.01      12.10
H      -1.36      12.09      13.26
H       0.59       9.72      13.94
H      -0.41       9.04      15.26
H      -0.49      12.98      16.99
H       0.33      12.98      19.36
H       2.41       9.29      18.63
H       1.52       9.22      16.31
H      -3.69      10.28      13.92
H      -2.68      11.19      15.08
H      -0.90      13.23      11.37
H      -1.45      15.07       9.81
H      -3.41      11.67      19.32
H      -2.28      11.16      17.17
H      -5.02       7.91      16.48
H      -6.17       8.44      18.65
H      -2.71       8.63      12.44
H      -1.66       7.81      13.64
C      -0.89       5.57       9.09
C      -1.75       5.54      10.20
C      -1.72       6.52      11.17
C       0.10       7.60       9.96
C       0.05       6.62       8.99
C      -1.56       9.98      13.70
C      -3.37      14.26       9.25
C      -4.27      13.20       9.43
C      -3.98      12.16      10.29
C      -2.77      12.18      11.01
C      -1.42      11.14      12.71
C      -0.30       9.89      14.57
C       0.43      11.09      16.52
C       0.14      12.17      17.37
C       0.61      12.18      18.67
C       1.42      11.13      19.14
C       1.77      10.09      18.26
C       1.27      10.05      16.96
C      -2.80      10.23      14.56
C      -1.85      13.22      10.83
C      -2.15      14.25       9.95
C      -5.56      10.40      20.40
C      -4.87      10.09      19.11
C      -3.77      10.86      18.69
C      -3.14      10.57      17.48
C      -3.60       9.51      16.69
C      -4.68       8.73      17.11
C      -5.31       9.03      18.31
C      -0.79       7.56      11.05
C      -1.73       8.66      12.94
C       1.80      11.02      20.58
C      -0.92       4.46       8.15
C      -3.69      15.38       8.34
O       0.10       4.19       7.41
O      -2.78      16.23       8.06
O       1.19      11.80      21.40
O      -2.59      11.13      11.87
O      -0.17      11.12      15.30
O       2.64      10.11      20.88
O      -4.88      15.43       7.85
O      -5.03      11.23      21.20
O      -6.68       9.79      20.59
O      -1.92       3.64       8.06
O      -2.97       9.16      15.51
O      -0.69       8.57      11.96
