102

C      21.52      13.90      10.21
C      20.42      20.04      12.35
C      11.30      20.98      18.08
H      11.43      12.36      18.87
C      16.50      18.06      14.04
C      13.97      19.61      17.98
C      15.11      19.62      17.18
H      17.60      17.64      12.23
H      15.60      17.59      13.67
H       8.36      15.66      19.38
C      12.97      18.64      17.78
H      10.22      19.12      20.72
H       7.42      11.69      21.60
H      17.76      19.77      16.70
C      22.99      12.71       8.70
H      19.81      16.33      13.81
C      10.53      12.28      19.47
H      13.25      16.51      19.28
C      19.60      21.17      12.30
H      11.21      24.79      19.07
C      20.92      12.66      10.47
H      18.56      21.10      12.63
C      10.32      14.77      19.61
C      21.82      23.66      10.50
H      11.86      20.90      17.16
C      11.14      19.84      18.90
C      12.18      16.32      19.29
H      10.48      27.00      19.88
C       8.55      23.88      20.98
H      12.39      16.93      16.62
C      10.04      11.01      19.79
H      10.92      23.06      17.79
C      18.79      18.75      13.63
C      17.70      19.32      15.71
H      23.12      14.83       9.07
C      16.51      18.67      15.31
H      23.26      21.42      11.07
H       9.20      17.90      18.80
C       9.64      23.70      20.11
C      15.31      18.65      16.17
C      21.77      20.16      11.94
C      21.78      26.03      10.00
H      20.07      12.58      11.15
C       8.21      25.16      21.40
H      12.41      14.25      19.78
C      20.78      17.57      10.80
H       7.38      25.34      22.08
C      11.70      15.04      19.56
C       9.93      26.10      20.16
C      20.55      15.16      12.17
H      20.67      25.14      11.61
H      23.09      22.54       9.13
H      13.84      20.36      18.75
C      22.71      23.52       9.42
H      20.45      14.22      12.72
C      22.59      13.91       9.30
C      21.35      24.95      10.78
C      10.07      22.37      19.66
H      23.82      12.70       8.00
H      20.85      18.50      10.24
C      11.28      17.37      18.99
C      22.22      21.35      11.38
H      20.92      10.55       9.98
H       8.12      14.03      21.09
H       9.32      21.30      21.38
H      21.46      27.05      10.21
H      23.76      24.56       7.83
H      14.43      16.89      15.26
C      21.16      16.38      10.19
H      21.51      16.40       9.16
H      19.73      19.86      15.21
H      10.57      10.12      19.44
H       7.95      23.04      21.31
H      22.44      19.31      12.04
H      15.84      20.40      17.33
C      23.09      24.64       8.69
C       9.84      13.42      19.91
C      13.16      17.68      16.78
C       9.85      21.21      20.43
C       9.90      17.11      19.05
H      19.39      23.21      11.66
C       8.68      13.20      20.69
C      17.62      18.09      13.22
C      14.31      17.67      16.01
C      10.78      22.21      18.46
C       9.44      15.84      19.38
C      21.38      22.47      11.25
C      20.31      17.58      12.12
N      11.79      18.63      18.58
C      18.82      19.36      14.89
N      19.92      18.78      12.77
C       8.29      11.89      20.97
N      22.41      11.52       8.95
C      21.07      15.15      10.86
N       8.94      10.80      20.53
N       8.88      26.26      20.99
N      22.63      25.87       8.97
C      20.19      16.35      12.79
C      21.39      11.52       9.82
C      10.34      24.85      19.71
C      20.07      22.37      11.76
C      10.36      19.98      20.07
