27

O      23.16       6.37      27.88
O      18.36       8.25      24.02
O      23.67       7.33      34.16
H      22.00       9.50      24.76
C      23.86       6.55      31.46
H      23.57       8.57      26.48
C      19.59       8.58      24.04
H      21.08       7.73      29.00
H      20.88       8.20      31.44
C      22.62       8.08      26.27
H      20.78       5.38      27.26
C      21.03       6.28      26.71
C      22.25       6.92      26.95
H      24.64       6.27      32.16
C      21.85       7.39      29.69
H      19.18       6.38      25.58
C      22.97       6.69      29.22
C      21.75       7.66      31.06
C      20.50       8.00      25.08
C      22.67       7.63      33.40
C      20.15       6.84      25.78
C      21.74       8.61      25.32
C      22.75       7.25      31.95
H      24.84       5.74      29.70
O      20.14       9.38      23.20
C      23.97       6.27      30.10
O      21.65       8.27      33.83
