102

C       5.43       5.16       5.80
C      16.45       1.09      -3.32
H      13.44      -1.15       2.58
H       3.18      -6.81       7.97
H       2.96       6.84       7.47
C       6.99      -2.37       3.96
H       6.11       8.47       5.34
H       3.70      -4.50       7.20
H      16.54       0.16      -3.87
C      15.30      -2.53      -1.83
C       6.11      -6.26       5.59
H      16.06       4.43      -1.40
H       6.30      -8.41       5.75
C      16.81       2.29      -3.93
H       7.01       6.24       4.76
C       9.99       0.95       1.90
C      13.28       0.53      -0.90
H      17.26      -8.39      -3.89
H      19.54      -5.88      -6.26
C      10.99      -0.03       2.06
H      15.41      -1.22       1.08
H      18.73       3.88      -5.05
H      18.11      -0.64      -2.08
C       5.93       3.81       5.49
C       8.83       0.94       2.67
H      17.15       2.27      -4.96
H       8.89       2.12       5.16
H       3.71       4.51       6.96
C       7.81       2.29       5.17
H      15.45       2.31      -0.31
H       6.63      -4.46       3.66
C       8.65      -0.03       3.67
H      14.26      -2.47      -1.51
C      17.93      -2.68      -2.73
C       6.94       1.24       4.87
C      12.19      -0.05       1.20
H      13.26       0.99      -1.89
C       4.26       5.36       6.56
C      17.10      -3.81      -2.87
C      14.50      -0.73       0.76
H      11.26       1.03      -0.44
C       5.07       2.73       5.25
H      19.38       6.02      -6.12
C       5.73      -7.52       6.04
C      17.56      -4.99      -3.61
C      17.12       4.77      -3.90
C      18.86      -5.96      -5.41
H       8.07       1.69       2.51
C       5.79      -3.78       5.54
H       8.01       4.37       5.66
C      17.11      -6.30      -3.33
H       7.55      -2.28       3.03
H       6.98      -6.18       4.93
H      18.83      -3.87      -4.97
H      11.52      -1.79       3.21
C       5.59       7.57       5.68
C      15.79      -3.72      -2.36
C      16.11      -1.38      -1.77
H       3.99       2.90       5.25
C       6.82      -1.24       4.78
H       4.87       0.66       4.67
C      18.55       5.99      -5.42
H       9.52      -1.75       4.64
C      14.46      -0.11      -0.50
C      16.17       3.50      -1.95
H      18.97      -2.74      -3.05
H      10.11       1.73       1.15
C       4.00      -6.62       7.29
H       5.90      -0.53       6.61
H      15.64       6.06      -2.95
H      15.12      -4.57      -2.46
H      16.43      -6.48      -2.51
C      16.49       6.00      -3.64
H       5.03      -2.73       7.27
C       6.10       6.31       5.36
H      16.45       8.11      -4.12
C      15.83       2.30      -1.32
C       6.49      -3.61       4.33
C      15.97       1.07      -2.00
C      13.38      -0.69       1.59
C      17.57      -7.36      -4.10
C      16.69       3.52      -3.26
C      12.17       0.56      -0.07
C       6.05      -1.39       5.95
C      18.18       4.79      -4.82
C       5.56       1.47       4.92
C       5.55      -2.63       6.31
C       5.40      -5.12       5.99
C      17.46      -1.50      -2.18
C       4.32      -5.33       6.87
C      18.47      -4.85      -4.68
N      17.95       7.17      -5.17
C       3.84       6.66       6.85
C      10.79      -1.00       3.07
N      15.59      -0.14      -1.36
C       9.65      -0.99       3.87
C      16.93       7.15      -4.29
N      18.42      -7.20      -5.13
N       4.69      -7.70       6.87
N       4.48       7.76       6.41
N       7.46      -0.02       4.47
C       7.32       3.56       5.43
