72

Al      11.91       6.49      10.53
Al      17.88       4.04      10.53
Al       8.94       5.26       1.22
Al       8.93       5.27       9.31
H      10.98       8.46       0.62
H      10.98       2.07       9.91
H      13.97       4.64       3.20
H      13.96       5.88       7.34
H      15.84       4.64       7.33
H      15.84       5.88       3.20
H       6.90       2.07       0.62
H      18.82       8.46       9.91
H      13.41       4.59       9.85
H      13.42       5.94       0.67
H      16.39       5.94       9.85
H       4.47       4.59       0.67
H      13.23      10.53      10.53
H      10.25       5.26       5.26
H       7.62       5.27       5.27
H      16.57       0.00      10.53
C       8.36       8.06       0.51
C       9.07       9.36       0.29
C      10.46       9.37       0.33
C       8.36       2.47      10.02
C       9.07       1.17      10.24
C      10.46       1.16      10.20
C      11.35       4.75       2.80
C      12.05       4.97       4.09
C      13.45       4.94       4.11
C      11.34       5.78       7.73
C      12.05       5.55       6.44
C      13.45       5.59       6.42
C      18.46       4.75       7.73
C      17.76       4.98       6.44
C      16.36       4.94       6.42
C       6.53       5.78       2.80
C       5.83       5.55       4.09
C      16.36       5.59       4.11
C       9.52       2.47       0.51
C       8.82       1.17       0.29
C       7.42       1.16       0.33
C      21.44       8.06      10.01
C      20.73       9.36      10.24
C      19.33       9.37      10.20
C      14.31      10.53      10.53
C       5.23       0.00       0.00
C      11.34       5.26       5.26
C      14.16       5.26       5.27
C       6.54       5.27       5.27
C      15.64       5.27       5.27
C       9.53       0.00       0.00
C      12.66      10.53       0.00
O       9.00       7.16       1.16
O       7.20       7.95       0.00
O       9.00       3.37       9.37
O      19.13       2.58      10.52
O      11.99       4.10       1.90
O      10.19       5.26       2.68
O      11.98       6.43       8.63
O      10.18       5.27       7.85
O      17.82       4.10       8.63
O       7.69       5.26       7.85
O       5.89       6.43       1.90
O       7.69       5.27       2.68
O       8.88       3.36       1.17
O      10.68       2.58       0.00
O      20.79       7.17       9.36
O      10.67       7.95      10.52
O       7.45       5.27       0.01
O      19.37       5.25      10.52
O      10.43       5.25       0.01
O      10.42       5.28      10.52
