39

H       3.49       0.76       3.15
H       5.02      -1.68       2.09
H       8.56      -0.69       1.47
H       7.11       0.30       1.18
H       6.96      -1.45       1.31
H       9.09      -0.24       7.44
H       9.55       1.12       6.41
H      10.19      -0.48       6.07
H       4.32      -1.00       6.64
H       3.70      -1.22       4.98
H       3.77       0.39       5.69
H      10.52      -0.70       3.98
H       9.42       1.69       2.40
C       2.71      -0.59       1.60
C       3.72      -0.15       2.60
C       4.87      -0.83       2.76
C       5.96      -0.54       3.71
C       7.28      -0.45       3.20
C       8.36      -0.24       4.08
C       8.13      -0.19       5.48
C       6.80      -0.25       5.98
C       5.70      -0.42       5.09
C       7.50      -0.58       1.71
C       9.29       0.05       6.40
C       4.30      -0.57       5.63
C       9.74      -0.03       3.60
C      10.13       0.96       2.79
C      11.55       1.15       2.37
C       6.62      -0.11       7.42
C       5.74       0.70       8.06
C       5.79       0.84       9.52
H       7.31      -0.66       8.06
H       5.06       1.37       7.53
O       2.81      -1.79       1.16
O       1.81       0.26       1.28
O      12.43       0.32       2.69
O      11.73       2.25       1.68
O       6.38      -0.07      10.21
O       5.25       1.90      10.01
