292

C      17.22       0.66      34.10
C      15.80       0.74      34.13
C      15.78       0.72       1.62
C      17.19       0.64       1.68
C       0.28       0.62       2.98
C      17.03       0.68       4.18
C      15.63       0.83       4.06
C      15.01       0.82       2.81
C      15.06       0.84      32.93
C      15.71       0.86      31.70
C      17.11       0.74      31.60
C       0.34       0.66      32.81
C       1.31       1.92       0.41
C       2.73       1.86       0.46
C       2.70      16.85       0.40
C       1.28      16.82       0.39
C       3.44      15.65       0.38
C       2.81      14.41       0.35
C       1.40      14.31       0.36
C       0.65      15.52       0.37
C       0.71       3.23       0.41
C       1.47       4.43       0.44
C       2.87       4.30       0.56
C       3.49       3.04       0.54
C       0.49       0.62       0.39
C       3.48       0.59       0.45
C      15.02       0.76       0.36
C       0.62      17.32      16.52
C       0.72      15.90      16.53
C       0.78      15.86      19.05
C       0.68      17.27      19.12
C       0.68       0.36      20.42
C       0.78      17.11      21.61
C       0.93      15.71      21.48
C       0.91      15.09      20.23
C       0.75      15.17      15.32
C       0.69      15.83      14.09
C       0.61      17.23      14.02
C       0.55       0.45      15.24
C      16.82       1.37      17.88
C      16.86       2.79      17.94
C       1.87       2.81      17.85
C       1.93       1.39      17.82
C       3.06       3.58      17.83
C       4.31       2.96      17.80
C       4.43       1.56      17.79
C       3.23       0.79      17.80
C      15.52       0.75      17.88
C      14.31       1.49      17.92
C      14.42       2.90      18.05
C      15.66       3.53      18.03
C       0.62       0.58      17.83
C       0.60       3.56      17.91
C       0.81      15.11      17.77
C       0.24       0.45      28.01
C      17.06       1.07      25.78
C       0.53       0.23      25.21
C       1.26      17.15      27.44
C       2.02      16.36      28.13
C      17.25       0.27      29.29
C       0.36      17.20      23.94
C       0.86       0.43      10.48
C      16.65       0.04       8.85
C       0.04       0.28       7.78
C       1.76       0.70       9.41
C       3.01       0.99       9.58
C       1.25       0.17      11.80
C      17.12       0.10       6.47
C       0.27      10.80       0.32
C       1.90       9.11      34.83
C       0.97       8.06       0.04
C      16.84       9.75       0.56
C      15.61       9.96       0.92
C       0.01      12.19       0.41
C       1.37       6.73      34.88
C       7.92       0.37      17.76
C       9.66       1.96      17.24
C      10.68       1.01      17.48
C       8.94      16.93      18.02
C       8.71      15.71      18.38
C       6.53       0.15      17.85
C      12.02       1.38      17.30
C       8.71       8.66       4.08
C       7.29       8.73       4.11
C       7.26       8.72       6.62
C       8.68       8.64       6.68
C       9.28       8.62       7.98
C       8.52       8.68       9.18
C       7.12       8.83       9.06
C       6.50       8.82       7.81
C       6.55       8.84       2.91
C       7.20       8.86       1.67
C       8.60       8.74       1.58
C       9.34       8.66       2.79
C      10.31       9.92       5.41
C      11.73       9.86       5.46
C      11.70       7.34       5.40
C      10.28       7.31       5.39
C      12.44       6.14       5.38
C      11.80       4.89       5.35
C      10.40       4.80       5.36
C       9.65       6.01       5.37
C       9.71      11.23       5.41
C      10.47      12.43       5.44
C      11.87      12.30       5.56
C      12.49      11.04       5.54
C       9.49       8.62       5.39
C      12.48       8.59       5.45
C       6.51       8.76       5.36
C       9.62       7.81      21.52
C       9.72       6.39      21.53
C       9.78       6.35      24.05
C       9.68       7.76      24.12
C       9.68       8.36      25.42
C       9.78       7.60      26.61
C       9.93       6.20      26.48
C       9.91       5.58      25.23
C       9.75       5.66      20.32
C       9.69       6.32      19.09
C       9.61       7.72      19.02
C       9.55       8.45      20.24
C       8.31       9.37      22.88
C       8.35      10.79      22.94
C      10.87      10.81      22.85
C      10.93       9.39      22.82
C      12.06      11.58      22.83
C      13.31      10.96      22.80
C      13.43       9.56      22.79
C      12.23       8.79      22.80
C       7.01       8.75      22.88
C       5.80       9.49      22.92
C       5.91      10.90      23.05
C       7.15      11.53      23.03
C       9.62       8.58      22.83
C       9.60      11.56      22.91
C       9.81       5.60      22.77
C       9.24       8.45      33.01
C       8.55       9.07      30.78
C       9.52       8.23      30.21
C      10.26       7.64      32.44
C      11.02       6.85      33.13
C       8.73       8.27      34.29
C       9.36       7.69      28.94
C       9.86       8.43      15.48
C       8.14       8.04      13.85
C       9.03       8.28      12.78
C      10.76       8.70      14.41
C      12.01       8.99      14.58
C      10.25       8.17      16.80
C       8.61       8.10      11.47
C       9.27       1.29       5.32
C      10.90      17.10       4.81
C       9.97      16.06       5.04
C       8.33       0.24       5.56
C       7.10       0.45       5.92
C       9.01       2.68       5.41
C      10.37      14.73       4.86
C      16.92       8.37      22.76
C       1.15       9.96      22.24
C       2.17       9.01      22.48
C       0.43       7.42      23.02
C       0.19       6.19      23.38
C      15.53       8.15      22.85
C       3.51       9.38      22.30
H       3.47       5.12       0.65
H       4.51       3.00       0.61
H       4.47      15.67       0.39
H       3.39      13.56       0.34
H      17.14      15.46       0.37
H      17.20       3.31       0.38
H       1.30       0.56       3.06
H      15.04       0.94       4.88
H      13.99       0.92       2.77
H       1.36       0.62      32.76
H      14.04       0.92      32.95
H      15.13       0.99      30.86
H       4.14       0.61      34.60
H       4.10       0.56       1.35
H      14.34      17.42       0.35
H      14.43       1.68       0.36
H      13.59       3.48      18.15
H      15.69       4.55      18.10
H       3.02       4.60      17.85
H       5.15       3.55      17.79
H       3.31      17.28      17.79
H      15.46      17.24      17.83
H       0.62       1.38      20.50
H       1.07      15.12      22.30
H       1.01      14.08      20.18
H       0.46       1.47      15.19
H       0.81      14.15      15.33
H       0.68      15.26      13.24
H       0.56       4.23      17.05
H       0.63       4.18      18.82
H       1.74      14.54      17.74
H      17.48      14.41      17.78
H      16.34       1.51      25.20
H      16.40      17.25      29.32
H      17.39      16.33      23.92
H      15.68      17.28       8.69
H       2.11      17.20      11.93
H      16.32      17.03       6.35
H       2.86       8.91      34.55
H      16.59      12.52       0.54
H       2.15       6.60      34.27
H       9.87       2.92      16.95
H       6.17      16.75      17.99
H      12.17       2.14      16.68
H      12.47      13.12       5.65
H      13.51      11.00       5.61
H      13.47       6.16       5.39
H      12.39       4.05       5.34
H       8.63       5.95       5.37
H       8.69      11.31       5.38
H      10.30       8.56       8.06
H       6.53       8.94       9.88
H       5.48       8.92       7.77
H      10.36       8.62       2.74
H       5.53       8.92       2.93
H       6.62       8.99       0.84
H      13.14       8.61       4.57
H      13.10       8.56       6.35
H       5.82       7.91       5.35
H       5.91       9.68       5.36
H       5.08      11.48      23.15
H       7.18      12.55      23.10
H      12.02      12.60      22.85
H      14.15      11.55      22.79
H      12.31       7.77      22.79
H       6.95       7.73      22.83
H       9.62       9.38      25.50
H      10.07       5.61      27.30
H      10.01       4.57      25.18
H       9.46       9.47      20.19
H       9.81       4.64      20.33
H       9.68       5.75      18.24
H       9.56      12.23      22.05
H       9.63      12.18      23.82
H      10.74       5.03      22.74
H       8.97       4.90      22.78
H       7.83       9.51      30.20
H       7.89       7.74      34.32
H       8.88       6.82      28.92
H       7.17       7.77      13.69
H      11.11       7.69      16.93
H       7.81       7.52      11.35
H      11.86      16.91       4.53
H       8.08       3.01       5.54
H      11.15      14.60       4.25
H       1.36      10.92      21.95
H      15.17       7.24      22.99
H       3.66      10.14      21.68
N       0.96      13.05       0.34
N       0.18       0.79      30.38
N       0.07       0.71       5.42
N       0.93       5.68       0.49
N       5.70       1.13      17.77
N       0.43       0.26      12.80
N       0.83       0.17      22.84
N      13.06       0.95      17.96
N      16.94       1.10      27.13
N       1.31      17.04      26.08
N       2.69      15.67      28.76
N      17.10       0.10      10.13
N       1.31       0.61       8.12
N       4.12       1.24       9.74
N       1.51      10.40      34.97
N      17.23       8.45       0.42
N      14.52      10.15       1.23
N       8.36       1.61      17.38
N      10.26      17.28      17.87
N       8.49      14.62      18.71
N       9.96       3.54       5.34
N       9.19       8.79       0.36
N       9.07       8.71      10.42
N       9.93      13.68       5.49
N      14.70       9.13      22.77
N       9.43       8.26      17.80
N       9.83       8.17      27.84
N       4.55       8.95      22.96
N       8.42       9.10      32.13
N      10.31       7.53      31.08
N      11.69       6.16      33.76
N       8.59       8.10      15.13
N      10.31       8.61      13.12
N      13.12       9.24      14.74
N      10.51       0.89       4.95
N       8.72      16.45       5.42
N       6.01       0.63       6.23
N      17.36       9.61      22.38
N       1.75       7.77      22.87
N      17.49       5.11      23.71
