87

Co       6.69       2.27       5.34
Co       7.43       5.51       0.00
Co       8.40       7.78       5.34
H       7.14       2.59       1.90
H      12.38      12.83       7.52
H      14.47      11.86       7.69
H      14.71      11.93       3.65
H       9.19       1.86       3.61
H       4.36      10.01       7.52
H       6.25       8.69       7.40
H       7.26      10.24       3.94
H       5.42      11.64       3.96
H      11.76      11.98      10.44
H      14.06      12.04      10.41
H      12.13       3.54       0.40
H       9.83       3.60       0.46
H       9.67      12.97       8.78
H       4.42       2.73       3.16
H       2.33       3.70       2.99
H       2.09       3.63       7.04
H       7.61      13.69       7.08
H      12.45       5.55       3.16
H      10.56       6.87       3.28
H       9.54       5.32       6.74
H      11.38       3.92       6.72
H       5.04       3.58       0.24
H       2.74       3.51       0.28
H       4.67      12.01      10.28
H       6.98      11.96      10.22
C       7.17       3.40       2.39
C       7.15       4.79       4.04
C       7.35       5.49       2.87
C       6.98       5.15       5.47
C       7.56       6.92       2.51
C      12.86      12.62       6.72
C      14.10      12.04       6.84
C      14.81      11.71       5.68
C      14.24      12.08       4.46
C      12.99      12.65       4.45
C       4.64      10.96       5.72
C       4.93      10.07       6.77
C       6.06       9.28       6.68
C       6.65      10.18       4.67
C       5.55      11.02       4.68
C      12.24      11.17      10.57
C      13.62      11.22      10.54
C      12.41       5.52       0.02
C      11.68       4.37       0.26
C      10.30       4.40       0.29
C       9.63      12.16       8.29
C       9.65      10.77       6.64
C       9.45      10.07       7.82
C       9.82      10.41       5.22
C       9.25       8.63       8.18
C       3.95       2.94       3.96
C       2.70       3.52       3.85
C       1.99       3.84       5.00
C       2.56       3.48       6.22
C       3.81       2.91       6.24
C      12.16       4.60       4.96
C      11.87       5.49       3.92
C      10.74       6.28       4.00
C      10.15       5.37       6.01
C      11.25       4.54       6.01
C       4.56       4.39       0.11
C       3.19       4.34       0.14
C       4.39      10.04      10.66
C       5.12      11.19      10.42
C       6.50      11.15      10.39
N       7.05       3.46       3.72
N       7.36       4.60       1.83
N      12.27      12.90       5.55
N       6.90       9.30       5.65
N       9.61       5.53       0.08
N       9.76      12.10       6.97
N       9.44      10.96       8.85
N       4.53       2.66       5.13
N       9.90       6.26       5.03
N       7.20      10.03      10.60
O       7.01       6.34       5.84
O       6.79       4.18       6.26
O       7.82       7.79       3.36
O       7.46       7.19       1.27
O       9.80       9.21       4.84
O      10.02      11.38       4.42
O       8.98       7.76       7.32
O       9.34       8.37       9.41
