19

H       0.59       0.11      11.78
H      -1.27       4.00      11.93
H      -0.08       2.31       8.14
C       0.27       1.08       9.88
C       0.21       1.00      11.28
C      -0.32       2.05      12.02
C      -0.83       3.18      11.36
C      -0.72       3.30       9.97
C      -0.16       2.25       9.22
C       0.74      -0.11       9.11
C      -0.34       1.99      13.51
C      -1.16       4.61       9.40
O      -0.72       6.09       7.63
O       0.79      -1.24       9.71
O       1.07      -0.02       7.87
O       0.47       1.23      14.13
O      -1.22       2.72      14.11
O      -1.68       5.50      10.03
O      -0.85       4.69       8.04
