18

C       0.44       7.34       4.99
C       1.19       4.61       0.90
O      -0.88      10.43       1.13
H      -0.55       9.16       3.23
H       1.38       5.30       3.43
H       0.06       6.88      -0.37
O      -1.01       9.18      -0.70
O      -0.51       7.99       5.56
O       0.85       4.49      -0.44
O       1.41       6.77       5.61
O       1.74       3.75       1.54
C      -0.26       8.13       1.34
C      -0.17       8.26       2.74
C       0.41       7.23       3.50
C       0.91       6.09       2.85
C       0.75       5.93       1.46
C       0.17       6.96       0.71
C      -0.76       9.30       0.56
