140

V       6.77      17.90      10.41
V       3.15       3.30      10.54
V       2.37       0.14       0.07
V       5.99      21.06      20.89
H       2.87       5.20      16.89
H       6.49      16.00       4.07
H       7.10      19.46      16.85
H       3.49       1.75       4.10
H       2.64      18.42      14.93
H       6.26       2.78       6.03
H       0.92       6.46       2.56
H       4.54      14.74      18.40
H       1.14       5.95       6.94
H       4.76      15.25      14.02
H       0.95       7.84      10.76
H       4.57      13.36      10.20
H       0.55      11.42       7.74
H       4.17       9.78      13.21
H       0.77      16.60      20.51
H       4.39       4.60       0.44
H       0.91      11.96       3.42
H       4.52       9.25      17.54
H       0.98       6.17       4.88
H       4.59      15.03      16.07
H       0.49      11.71       5.40
H       4.11       9.49      15.55
H       0.74      10.04       9.71
H       4.36      11.16      11.24
H       6.55       8.40      13.35
H       6.53       8.35      15.16
H       0.55       9.32      14.29
H       1.53       7.23      15.15
H       1.54       7.25      13.35
H       6.68       5.89      13.32
H       6.66       5.79      15.08
H       2.92      12.81       7.59
H       2.92      12.85       5.77
H       4.15      11.88       6.66
H       5.15      13.97       5.81
H       5.15      13.95       7.61
H       3.06      15.32       7.63
H       3.04      15.42       5.87
H       1.75      12.29      19.08
H       7.19      12.28      19.08
H       0.84      13.12      17.76
H       7.18      14.77      19.36
H       1.73      14.78      19.36
H       1.73       6.96       0.44
H       7.21       6.94       0.45
H       5.37       8.92       1.87
H       3.57       8.93       1.87
H       4.46       8.09       3.19
H       3.56       6.44       1.59
H       5.35       6.42       1.59
H       5.35      14.24      20.51
H       3.59      14.26      20.51
C       4.74      15.75      11.44
C       1.13       5.46       9.51
C       4.74      17.23       8.13
C       1.12       3.97      12.82
C       1.91      19.79      16.48
C       5.53       1.42       4.47
C       0.80      19.86      17.23
C       4.42       1.34       3.72
C       1.89      19.19      15.12
C       5.51       2.02       5.83
C       1.04       4.66      14.12
C       4.66      16.54       6.83
C       0.82      11.21       1.46
C       4.44       9.99      19.49
C       1.06       6.77       8.89
C       4.67      14.43      12.07
C       0.84       8.79       1.15
C       4.45      12.41      19.80
C       0.81      10.10       0.62
C       4.42      11.10      20.33
C       0.85      11.05       2.84
C       4.47      10.15      18.11
C       0.83       9.77       3.43
C       4.45      11.43      17.52
C       0.86       8.63       2.57
C       4.47      12.57      18.38
C       0.80       9.60       4.86
C       4.41      11.60      16.10
C       0.89       8.29       5.42
C       4.51      12.91      15.53
C       0.94       7.19       4.54
C       4.55      14.01      16.41
C       0.90       7.36       3.16
C       4.52      13.85      17.79
C       0.65      10.70       5.74
C       4.27      10.50      15.22
C       0.66      10.54       7.11
C       4.28      10.66      13.84
C       0.81       9.28       7.68
C       4.43      11.92      13.28
C       0.92       8.13       6.85
C       4.54      13.07      14.11
C       0.83       9.16       9.08
C       4.45      12.04      11.88
C       0.95       7.92       9.68
C       4.57      13.29      11.28
C       1.05       6.88       7.49
C       4.66      14.33      13.47
C       4.40       0.78       2.35
C       0.78      20.42      18.60
C       4.38       8.64      20.04
C       0.76      12.56       0.91
C       0.11       5.86      14.21
C       0.89       7.18      14.25
C       7.18       8.39      14.26
C       3.72      15.34       6.74
C       4.50      14.02       6.71
C       3.56      12.82       6.68
C       0.85       7.58       0.21
C       0.84      14.18      19.65
C       0.85      12.89      18.85
C       4.46      13.63      20.74
C       4.46       7.02       1.30
C       4.47       8.32       2.11
O       3.57       2.66       8.70
O       7.19      18.55      12.25
O       5.98      16.20      11.17
O       2.36       5.01       9.79
O       5.96      17.39       8.64
O       2.34       3.82      12.31
O       7.17       4.87       9.71
O       3.56      16.34      11.24
O       4.77       3.93      10.83
O       1.16      17.27      10.12
O       5.55       8.03      20.19
O       1.93      13.18       0.76
O       3.18       0.65       1.83
O       6.79      20.55      19.12
O       3.16       8.17      20.26
O       6.78      13.04       0.69
O       1.95       5.82      19.18
O       5.57      15.39       1.78
O       4.37      20.43      20.60
O       0.75       0.77       0.35
