54

Mn       3.39       6.62       9.60
Mn       0.91       2.29       0.00
P       4.89       4.49       7.60
P       0.58       9.02       2.01
P      -0.59       4.42       2.00
P       3.72      -0.11       7.59
H       3.51       2.82       7.50
H       3.48       6.00       3.82
H       3.68       6.53       5.50
H       2.99       4.94       5.17
H      -1.12       3.55       6.86
H      -0.78       1.53       2.11
H      -0.80       7.51       5.79
H      -0.61       6.98       4.11
H      -1.29       8.57       4.44
H       3.15       0.78       2.74
H       0.78       6.10       2.10
H       0.81       2.92       5.78
H       0.62       2.38       4.10
H       1.30       3.98       4.43
H       5.41       5.37       2.74
H       5.07       7.39       7.48
H       5.09       1.41       3.81
H       4.90       1.94       5.49
H       5.58       0.35       5.16
H       1.14       8.13       6.86
C       3.75       5.67       4.83
C       5.12       5.05       4.85
C       5.73       4.53       6.01
C      -1.55       3.95       5.94
C      -0.53       7.84       4.78
C       0.84       8.45       4.76
C       1.44       8.98       3.59
C       2.72       0.38       3.65
C       0.55       3.25       4.77
C      -0.83       3.86       4.75
C      -1.43       4.39       3.59
C       5.85       4.97       3.66
C       4.83       1.08       4.82
C       3.46       0.46       4.84
C       2.86      -0.07       6.01
C       1.57       8.54       5.95
O       4.60       5.94       8.05
O      -2.83       3.67       8.59
O       3.45       3.81       7.37
O       0.29       7.58       1.56
O       1.41       0.66       1.02
O      -0.84       0.53       2.28
O      -0.31       2.98       1.55
O       7.13       5.25       1.01
O       0.84       5.10       2.23
O       4.01       1.34       8.04
O       2.88       8.26       8.58
O       5.13       8.39       7.32
