18

O       2.97       6.67       3.66
O       4.09       5.58       6.88
O       3.53       3.61       7.82
C       3.66       3.73       5.44
C       3.25       4.45       4.30
C       3.35       3.94       3.02
C       3.79       2.62       2.83
C       4.13       1.85       3.95
C       4.09       2.41       5.24
C       3.75       4.34       6.81
C       3.90       2.09       1.43
O       1.70       5.88       5.28
O       4.10       0.85       1.22
O       3.80       2.93       0.48
N       2.61       5.77       4.44
H       3.07       4.55       2.16
H       4.42       0.80       3.83
H       4.39       1.81       6.10
