208

Cd       4.81      11.26      17.72
Cd       6.01       2.52      16.12
Cd       3.04      10.82       4.34
Cd       1.83       4.86       2.73
Cd       3.03       3.45       9.05
Cd       1.83      12.19      10.65
Cd       4.80       3.89      22.44
Cd       6.01       9.85      24.05
H       0.57      10.85      19.31
H       6.50      10.70      20.89
H       1.21      10.50      24.15
H       1.79      11.15      17.33
H       4.39      14.18      16.25
H       2.47       0.91      15.45
H       3.75       8.20      17.33
H       3.40       6.50      15.55
H       4.51       9.56      12.67
H       4.93      11.06      14.58
H       7.49      10.69       0.20
H       0.46      12.72       1.29
H       6.71       0.28      24.70
H       5.85      12.85      23.81
H       7.27      11.21       5.92
H       1.34      11.31       7.50
H       6.64      11.48      10.77
H       6.05      10.93       3.95
H       3.47       7.88       2.86
H       5.40       6.47       2.04
H       4.11      13.87       3.94
H       4.43       0.87       2.17
H       3.36      12.50      26.05
H       2.99      10.98       1.20
H       0.39      11.37      13.58
H       7.40       9.33      14.67
H       1.12       7.07      11.32
H       1.99       9.20      10.43
H       7.27       3.86       7.46
H       1.34       4.01       5.88
H       6.62       4.21       2.62
H       6.05       3.56       9.45
H       3.44       0.53      10.52
H       5.37      13.80      11.32
H       4.09       6.51       9.44
H       4.44       8.21      11.22
H       3.32       5.15      14.11
H       2.91       3.65      12.19
H       0.35       4.02      26.57
H       7.38       1.99      25.49
H       1.13      14.43       2.07
H       1.99       1.86       2.96
H       0.57       3.50      20.85
H       6.50       3.40      19.27
H       1.19       3.23      16.00
H       1.79       3.78      22.82
H       4.37       6.83      23.91
H       2.44       8.24      24.73
H       3.73       0.84      22.83
H       3.41      13.84      24.61
H       4.48       2.21       0.72
H       4.85       3.73      25.58
H       7.45       3.34      13.19
H       0.43       5.37      12.10
H       6.72       7.63      15.46
H       5.85       5.51      16.34
C       3.19      10.72      19.87
C       2.07      10.68      20.87
C       0.76      10.75      20.37
C       7.53      10.69      21.25
C       1.11      10.59      23.07
C       2.25      10.63      22.26
C       3.57      10.45      22.94
C       7.26      12.24      16.64
C       0.77      12.88      16.52
C       1.89      12.15      16.91
C       3.36      13.84      16.30
C       2.30      14.63      15.86
C       0.98      14.16      15.98
C       7.70       0.42      15.69
C       3.94       8.43      16.28
C       3.72       7.50      15.27
C       3.98       7.85      13.93
C       4.36       9.18      13.67
C       4.57      10.05      14.74
C       7.29      11.67      26.52
C       7.78      12.83       0.34
C       7.58      14.08      26.48
C       6.89      14.07      25.26
C       6.41      12.87      24.75
C       4.65      11.33       6.49
C       5.77      11.36       7.49
C       7.08      11.29       6.99
C       0.31      11.33       7.86
C       6.74      11.40       9.69
C       5.60      11.39       8.89
C       4.28      11.58       9.57
C       0.58       9.87       3.25
C       7.09       9.21       3.13
C       5.95       9.93       3.53
C       4.50       8.23       2.91
C       5.57       7.46       2.46
C       6.89       7.93       2.58
C       0.16       6.97       2.28
C       3.93      13.63       2.89
C       4.13      14.56       1.89
C       3.89      14.21       0.55
C       3.53      12.87       0.29
C       3.34      12.00       1.35
C       0.56      10.39      13.13
C       0.08       9.23      13.73
C       0.25       7.99      13.10
C       0.94       7.99      11.87
C       1.43       9.18      11.36
C       4.64       3.98       6.90
C       5.77       4.03       5.90
C       7.08       3.96       6.40
C       0.31       4.02       5.52
C       6.73       4.12       3.70
C       5.59       4.08       4.51
C       4.27       4.26       3.84
C       0.58       2.47      10.13
C       7.07       1.83      10.25
C       5.95       2.56       9.86
C       4.48       0.87      10.47
C       5.54       0.08      10.91
C       6.86       0.55      10.79
C       0.14      14.28      11.08
C       3.90       6.27      10.49
C       4.12       7.21      11.50
C       3.86       6.86      12.84
C       3.48       5.53      13.10
C       3.27       4.66      12.03
C       0.55       3.04       0.25
C       0.06       1.88      26.43
C       0.25       0.63       0.29
C       0.95       0.64       1.51
C       1.43       1.84       2.03
C       3.19       3.38      20.28
C       2.07       3.35      19.28
C       0.76       3.42      19.78
C       7.53       3.38      18.91
C       1.10       3.30      17.08
C       2.24       3.32      17.88
C       3.56       3.13      17.20
C       7.26       4.84      23.52
C       0.75       5.50      23.65
C       1.89       4.78      23.25
C       3.34       6.48      23.87
C       2.27       7.25      24.31
C       0.95       6.78      24.19
C       7.68       7.74      24.49
C       3.91       1.08      23.88
C       3.71       0.15      24.89
C       3.95       0.50      26.23
C       4.31       1.84      26.48
C       4.50       2.71      25.42
C       7.28       4.32      13.64
C       7.76       5.48      13.04
C       7.59       6.72      13.68
C       6.90       6.72      14.90
C       6.41       5.53      15.41
N       7.70      10.58      22.58
N       3.16      12.61      16.81
N       4.39       9.68      16.02
N       6.60      11.69      25.36
N       0.15      11.41       9.20
N       4.70       9.45       3.43
N       3.50      12.38       2.64
N       1.24      10.37      11.97
N       0.13       4.13       4.19
N       4.68       2.10       9.96
N       3.45       5.03      10.75
N       1.23       3.02       1.42
N       7.69       3.30      17.57
N       3.14       5.26      23.34
N       4.34       2.33      24.13
N       6.60       4.34      14.80
O       4.12      11.58      20.01
O       3.08       9.96      18.85
O       4.37       9.58      22.45
O       3.79      11.10      24.01
O       6.94      11.84      17.83
O       6.56      12.09      15.62
O       6.66       0.34      16.43
O       0.06       1.36      14.86
O       3.71      10.48       6.63
O       4.77      12.10       5.48
O       3.47      12.43       9.06
O       4.06      10.96      10.67
O       0.92      10.22       4.45
O       1.25      10.10       2.22
O       1.23       7.08       2.97
O       7.79       6.01       1.48
O       3.72       3.13       6.76
O       4.76       4.75       7.92
O       3.47       5.13       4.32
O       4.04       3.61       2.76
O       0.90       2.87       8.94
O       1.28       2.62      11.16
O       1.18      14.37      10.34
O       7.78      13.35      11.91
O       4.13       4.23      20.14
O       3.07       2.61      21.29
O       4.37       2.28      17.71
O       3.78       3.74      16.10
O       6.92       4.49      22.32
O       6.59       4.61      24.55
O       6.61       7.62      23.80
O       0.05       8.70      25.29
