114

Cd       6.99       4.39       9.36
Cd      -0.89      -4.52      10.28
Cd      -1.81       1.46       3.73
Cd       6.07      10.36       2.81
H      -3.55      -4.61      10.68
H       4.56      -1.52       4.13
H       0.15       9.87       0.99
H       4.36      10.34       0.17
H       6.07       7.32       1.54
H       6.23       4.39       4.73
H       6.16       8.64       5.48
H       6.77       7.04       8.96
H       9.79       4.40       2.41
H      -2.04       7.39       5.55
H      -1.99       3.16       6.38
H       1.20       1.83       5.01
H       4.13       2.02       1.82
H      -0.09       1.58       1.07
H       8.73      10.46       2.41
H       0.62       7.36       8.96
H       5.03      -4.03      12.10
H       0.82      -4.49      12.92
H      -0.89      -1.48      11.55
H      -1.05       1.45       8.36
H      -0.98      -2.79       7.61
H      -1.58      -1.19       4.13
H      -4.61       1.45      10.68
H       7.22      -1.55       7.54
H       7.17       2.69       6.71
H       3.98       4.01       8.08
H       1.05       3.82      11.27
H       5.27       4.27      12.02
C       2.85      10.09       3.08
C       1.52       9.98       2.69
C       1.18       9.96       1.33
C       2.22      10.10       0.40
C       3.54      10.22       0.87
C      -3.14       4.44      12.01
C       6.09       7.06       2.59
C       6.14       5.73       3.01
C       6.19       5.42       4.37
C       6.19       6.48       5.29
C       6.15       7.79       4.80
C       6.26       6.24       6.78
C      -1.93       4.69       3.46
C      -1.99       6.03       3.86
C      -2.01       6.36       5.21
C      -2.02       5.31       6.14
C      -1.98       3.99       5.68
C      -2.17       5.54       7.62
C       1.47       1.84       3.95
C       2.80       1.95       3.53
C       3.11       1.94       2.17
C       2.06       1.82       1.26
C       0.75       1.69       1.75
C      -2.82      -4.01      12.86
C       2.33      -4.25      10.01
C       3.66      -4.14      10.40
C       4.00      -4.12      11.76
C       2.96      -4.26      12.69
C       1.64      -4.38      12.22
C       8.32       1.41       1.08
C      -0.91      -1.21      10.50
C      -0.96       0.12      10.08
C      -1.01       0.43       8.72
C      -1.00      -0.63       7.80
C      -0.97      -1.94       8.29
C      -1.08      -0.39       6.31
C       7.12       1.16       9.63
C       7.17      -0.18       9.23
C       7.19      -0.51       7.88
C       7.20       0.54       6.95
C       7.16       1.85       7.41
C       7.35       0.30       5.47
C       3.71       4.01       9.14
C       2.38       3.89       9.56
C       2.07       3.90      10.92
C       3.12       4.03      11.83
C       4.43       4.15      11.34
C       8.00       9.86       0.23
Br       1.58      -1.71       4.04
Br       6.18       4.33       1.69
Br       9.62       7.38       2.50
Br       4.19       2.08       4.85
Br       3.61       7.55       9.05
Br      -1.00       1.51      11.40
Br      -4.44      -1.54      10.59
Br       0.99       3.76       8.24
N       3.84      10.19       2.18
N       6.10       8.07       3.48
N      -1.91       3.69       4.37
N       0.47       1.71       3.06
N       1.34      -4.35      10.91
N      -0.92      -2.22       9.61
N       7.09       2.15       8.72
N       4.71       4.14      10.03
O      -4.25       3.97      11.58
O      -2.24       5.00      11.34
O       6.31       7.28       7.51
O       6.28       5.02       7.17
O      -1.83       6.69       8.06
O      -2.62       4.57       8.30
O      -3.85      -4.19      12.13
O      -1.61      -3.89      12.46
O       9.43       1.87       1.51
O       7.42       0.84       1.75
O      -1.13      -1.43       5.58
O      -1.10       0.82       5.92
O       7.01      -0.85       5.03
O       7.80       1.27       4.79
O       9.03      10.03       0.96
O       6.79       9.73       0.62
O      -4.54       6.66       9.82
O       9.72      -0.81       3.27
