25

H       2.74       4.56      11.54
H       0.11       7.18      10.88
H       0.52       7.15       9.18
H       4.09       6.77      11.75
H       0.69       6.02      13.02
H       2.01       5.06      13.64
H      -0.50       5.02       9.03
H       2.44       9.93      15.14
H       1.13       7.89      14.70
H       2.46       6.87      10.35
H       5.33       8.88      12.32
C       0.41       6.51      10.06
C       3.74       7.43      12.54
C       2.53       7.10      13.19
C       1.81       5.98      10.36
C       2.06       8.04      14.14
C       1.77       5.82      12.88
C       2.24       5.12       9.16
C       2.79       9.19      14.40
C       4.42       8.60      12.86
N       3.98       9.48      13.80
N       1.92       5.18      11.58
O       2.43       5.75       8.05
O       2.30       3.88       9.34
O      -0.61       5.55       9.89
