654

H      35.47       7.28      41.35
H      35.31       9.43      40.34
H      31.65       6.31      39.87
H      31.48       8.45      38.88
H      30.71      10.70      39.82
H      29.85      11.86      41.69
H      33.74      13.13      42.71
H      34.61      11.95      40.84
H      33.99      13.18      38.45
H      35.93      14.13      37.45
H      37.43      10.28      36.65
H      35.49       9.31      37.65
H      33.10       8.84      36.67
H      31.52      12.54      37.96
H      30.06      12.56      36.08
H      31.64       8.87      34.79
H      14.48      10.45      24.15
H      16.42       9.51      23.13
H      15.55      14.25      22.67
H      17.49      13.33      21.68
H      19.82      12.86      22.61
H      21.26      13.03      24.48
H      20.41       9.03      25.50
H      18.95       8.86      23.63
H      20.32       8.78      21.24
H      20.18       6.63      20.25
H      16.09       7.26      19.44
H      16.23       9.42      20.44
H      17.01      11.73      19.47
H      21.00      11.24      20.75
H      21.76      12.50      18.87
H      17.77      12.98      17.59
H      27.72      27.05       6.94
H      25.94      25.84       5.93
H      30.48      24.22       5.46
H      28.71      23.00       4.47
H      27.14      21.21       5.40
H      26.57      19.89       7.28
H      23.52      22.62       8.29
H      24.11      23.97       6.42
H      23.35      22.82       4.03
H      21.56      24.02       3.04
H      24.15      27.25       2.24
H      25.95      26.05       3.23
H      27.56      24.21       2.26
H      25.14      21.00       3.54
H      25.85      19.72       1.66
H      28.26      22.93       0.38
H      -9.49      37.47      15.55
H      -9.33      35.32      14.53
H      -5.67      38.44      14.06
H      -5.50      36.31      13.07
H      -4.73      34.05      14.01
H      -3.87      32.89      15.89
H      -7.76      31.62      16.89
H      -8.63      32.80      15.02
H      -8.01      31.57      12.63
H      -9.94      30.62      11.64
H     -11.45      34.48      10.84
H      -9.51      35.44      11.84
H      -7.12      35.91      10.86
H      -5.54      32.22      12.15
H      -4.08      32.19      10.27
H      -5.66      35.87       8.98
H      11.50      34.30      49.96
H       9.56      35.24      48.94
H      10.43      30.50      48.48
H       8.49      31.42      47.49
H       6.15      31.89      48.41
H       4.72      31.72      50.29
H       5.57      35.72      51.31
H       7.03      35.88      49.44
H       5.65      35.97      47.05
H       5.80      38.12      46.06
H       9.89      37.49      45.25
H       9.75      35.33      46.25
H       8.97      33.02      45.28
H       4.98      33.51      46.55
H       4.22      32.26      44.68
H       8.21      31.77      43.40
H      -1.74      17.70      32.75
H       0.04      18.92      31.74
H      -4.50      20.53      31.27
H      -2.73      21.75      30.28
H      -1.16      23.54      31.21
H      -0.59      24.86      33.09
H       2.45      22.13      34.10
H       1.87      20.78      32.23
H       2.63      21.93      29.84
H       4.42      20.73      28.85
H       1.83      17.51      28.05
H       0.03      18.70      29.04
H      -1.58      20.54      28.07
H       0.84      23.75      29.35
H       0.13      25.03      27.47
H      -2.28      21.82      26.19
H      31.64      15.91      44.27
H      27.67      20.30      48.67
H      30.73      16.58      49.28
H      27.99      15.37      47.40
H      27.91      18.20      45.81
H      27.21      19.55      46.46
H      32.35      17.86      45.43
H      31.56      18.44      46.76
H      29.53      20.80      51.39
H      29.34      13.63      43.16
H      23.87       9.45      27.06
H      29.65      10.70      31.46
H      24.90       9.91      32.07
H      25.23      12.89      30.20
H      27.72      11.54      28.60
H      29.23      11.47      29.26
H      25.20       7.87      28.22
H      26.10       8.26      29.55
H      29.15       8.84      34.19
H      23.04      12.60      25.96
H      22.16      19.42       9.86
H      20.35      13.79      14.25
H      22.04      18.29      14.87
H      24.46      16.52      12.99
H      22.04      15.04      11.39
H      21.23      13.76      12.05
H      20.13      19.06      11.01
H      20.01      18.08      12.34
H      18.99      15.14      16.98
H      25.29      18.56       8.75
H      -5.67      28.84      18.46
H      -1.69      24.45      22.86
H      -4.75      28.17      23.47
H      -2.01      29.38      21.59
H      -1.94      26.55      20.00
H      -1.23      25.20      20.65
H      -6.37      26.90      19.62
H      -5.58      26.31      20.95
H      -3.55      23.95      25.58
H      -3.36      31.12      17.36
H       2.12      35.30       1.25
H      -3.67      34.05       5.65
H       1.08      34.84       6.26
H       0.75      31.86       4.39
H      -1.74      33.21       2.79
H      -3.26      33.28       3.44
H       0.78      36.88       2.41
H      -0.12      36.49       3.74
H      -3.18      35.91       8.38
H       2.93      32.16       0.15
H       3.81      25.33      35.67
H       5.63      30.97      40.06
H       3.93      26.46      40.68
H       1.52      28.23      38.80
H       3.94      29.71      37.20
H       4.75      30.99      37.86
H       5.85      25.69      36.82
H       5.96      26.67      38.15
H       6.99      29.61      42.79
H       0.68      26.19      34.56
H      34.51       2.94      40.70
H       8.47      41.72      45.70
H       6.74      43.43      41.51
H      32.17       1.04      44.49
H      35.01       0.46      45.19
H       9.37      43.86      46.20
H      35.64       0.88      40.36
H       9.59      44.25      41.32
H       6.26      39.52      44.11
H      31.89       4.95      41.87
H      11.20      13.45      23.50
H       6.20      16.62      28.49
H       8.54      17.26      24.30
H      10.72      16.43      27.28
H       8.81      14.26      27.98
H       7.60      14.77      29.00
H       8.85      13.51      23.15
H       7.83      14.38      24.11
H       5.40      19.63      26.90
H      14.25      14.72      24.67
H      31.96      28.39       6.29
H     -14.41      31.13      11.28
H     -15.02      28.78       7.10
H      34.78      27.31      10.07
H      33.86      30.05      10.78
H     -16.70      30.84      11.79
H      33.18      30.39       5.95
H     -17.15      30.84       6.91
H     -11.40      30.32       9.69
H      31.53      25.12       7.46
H      -8.54      41.81      14.89
H      17.51       3.03      19.88
H      19.24       1.32      15.70
H      -6.19      43.71      18.68
H      -9.03      44.29      19.38
H      16.61       0.90      20.39
H      -9.66      43.87      14.55
H      16.39       0.50      15.51
H      19.71       5.23      18.29
H      -5.91      39.81      16.06
H      14.78      31.30      49.31
H      19.78      28.14       2.68
H      17.43      27.49      50.11
H      15.26      28.32       1.47
H      17.17      30.49       2.17
H      18.38      29.98       3.19
H      17.13      31.25      48.96
H      18.15      30.37      49.92
H      20.58      25.13       1.09
H      11.73      30.03      50.48
H      -5.98      16.36      32.10
H      40.38      13.62      37.09
H      41.00      15.97      32.91
H      -8.80      17.44      35.88
H      -7.88      14.70      36.59
H      42.68      13.91      37.60
H      -7.20      14.36      31.76
H      43.13      13.91      32.72
H      37.38      14.43      35.50
H      -5.56      19.64      33.27
C      30.67      10.69      35.30
C      30.69      11.77      36.20
C      31.55      11.74      37.32
C      32.38      10.62      37.59
C      32.45       9.63      36.58
C      31.59       9.64      35.47
C      33.28      10.55      38.82
C      34.57      11.14      38.25
C      35.58      10.33      37.65
C      36.72      10.89      37.05
C      36.86      12.29      36.95
C      35.85      13.11      37.49
C      34.71      12.54      38.10
C      32.74      11.30      40.04
C      33.42       9.15      39.41
C      34.54       8.78      40.20
C      34.63       7.52      40.81
C      33.57       6.59      40.71
C      32.43       6.96      39.97
C      32.35       8.22      39.36
C      31.37      11.22      40.40
C      30.85      11.90      41.51
C      31.71      12.65      42.35
C      33.09      12.63      42.09
C      33.60      11.95      40.98
C      19.83      12.91      18.09
C      20.75      12.35      19.00
C      20.30      11.62      20.11
C      18.91      11.46      20.38
C      18.02      11.90      19.37
C      18.46      12.63      18.26
C      18.40      10.71      21.62
C      18.27       9.31      21.04
C      17.07       8.84      20.45
C      16.98       7.57      19.84
C      18.12       6.75      19.74
C      19.34       7.21      20.29
C      19.41       8.48      20.89
C      19.32      10.81      22.84
C      17.12      11.30      22.20
C      16.24      10.51      23.00
C      15.10      11.06      23.61
C      14.83      12.44      23.51
C      15.72      13.25      22.77
C      16.85      12.69      22.16
C      19.95      12.03      23.19
C      20.79      12.14      24.30
C      21.01      11.03      25.15
C      20.30       9.84      24.89
C      19.45       9.74      23.77
C      27.17      21.18       0.88
C      26.22      20.67       1.79
C      25.82      21.42       2.90
C      26.37      22.70       3.18
C      27.20      23.26       2.17
C      27.62      22.51       1.05
C      25.98      23.52       4.41
C      24.83      24.34       3.83
C      25.03      25.61       3.24
C      23.97      26.32       2.63
C      22.69      25.74       2.54
C      22.48      24.46       3.08
C      23.54      23.76       3.69
C      25.61      22.68       5.63
C      27.13      24.34       5.00
C      26.89      25.49       5.79
C      27.94      26.21       6.40
C      29.26      25.75       6.30
C      29.52      24.57       5.56
C      28.47      23.87       4.95
C      26.36      21.52       5.98
C      26.03      20.74       7.10
C      24.96      21.10       7.94
C      24.28      22.31       7.68
C      24.62      23.09       6.56
C      -4.69      34.06       9.49
C      -4.71      32.98      10.40
C      -5.56      33.02      11.51
C      -6.40      34.13      11.78
C      -6.47      35.13      10.77
C      -5.62      35.11       9.66
C      -7.31      34.20      13.01
C      -8.59      33.61      12.44
C      -9.60      34.42      11.84
C     -10.74      33.86      11.24
C     -10.88      32.46      11.14
C      -9.87      31.64      11.68
C      -8.74      32.21      12.29
C      -6.77      33.46      14.24
C      -7.44      35.60      13.60
C      -8.56      35.97      14.40
C      -8.66      37.24      15.01
C      -7.60      38.16      14.90
C      -6.45      37.79      14.16
C      -6.37      36.53      13.55
C      -5.39      33.53      14.59
C      -4.88      32.85      15.70
C      -5.73      32.10      16.55
C      -7.11      32.12      16.28
C      -7.62      32.80      15.16
C       6.15      31.85      43.90
C       5.23      32.41      44.80
C       5.68      33.13      45.92
C       7.07      33.30      46.19
C       7.96      32.85      45.18
C       7.52      32.12      44.07
C       7.58      34.04      47.43
C       7.71      35.45      46.85
C       8.91      35.91      46.25
C       8.99      37.18      45.65
C       7.85      38.00      45.56
C       6.64      37.54      46.10
C       6.56      36.28      46.71
C       6.66      33.94      48.65
C       8.86      33.45      48.01
C       9.74      34.24      48.81
C      10.88      33.69      49.42
C      11.15      32.31      49.32
C      10.26      31.50      48.58
C       9.13      32.06      47.97
C       6.03      32.72      49.00
C       5.18      32.61      50.11
C       4.97      33.72      50.96
C       5.68      34.91      50.70
C       6.53      35.01      49.58
C      -1.19      23.57      26.69
C      -0.24      24.08      27.60
C       0.16      23.33      28.71
C      -0.39      22.05      28.99
C      -1.22      21.49      27.98
C      -1.64      22.24      26.86
C      -0.00      21.23      30.22
C       1.15      20.41      29.64
C       0.95      19.14      29.05
C       2.01      18.43      28.44
C       3.29      19.01      28.35
C       3.50      20.29      28.89
C       2.44      20.99      29.50
C       0.37      22.07      31.44
C      -1.15      20.41      30.81
C      -0.91      19.26      31.60
C      -1.96      18.55      32.21
C      -3.29      19.00      32.11
C      -3.54      20.18      31.37
C      -2.49      20.88      30.76
C      -0.38      23.23      31.79
C      -0.05      24.02      32.91
C       1.02      23.65      33.75
C       1.69      22.44      33.49
C       1.36      21.66      32.37
C      29.99      14.69      44.79
C      28.92      14.54      45.71
C      28.77      15.48      46.75
C      29.66      16.57      46.90
C      30.74      16.73      45.99
C      30.88      15.78      44.95
C      29.39      17.51      47.92
C      28.50      18.60      47.73
C      28.31      19.51      48.79
C      29.00      19.36      50.02
C      29.90      18.28      50.21
C      30.08      17.36      49.15
C      30.14      13.84      43.71
C      28.76      20.28      51.02
C      23.64      11.49      27.59
C      24.04      12.50      28.50
C      24.93      12.16      29.55
C      25.43      10.84      29.69
C      25.03       9.83      28.78
C      24.13      10.17      27.74
C      26.37      10.60      30.72
C      27.76      10.84      30.52
C      28.64      10.54      31.59
C      28.18      10.02      32.82
C      26.79       9.78      33.00
C      25.91      10.08      31.94
C      22.83      11.79      26.50
C      29.09       9.76      33.82
C      24.04      18.60      10.38
C      24.71      17.75      11.29
C      23.98      17.15      12.34
C      22.59      17.37      12.48
C      21.91      18.23      11.58
C      22.65      18.83      10.54
C      21.90      16.67      13.51
C      21.41      15.35      13.32
C      20.71      14.74      14.38
C      20.50      15.40      15.61
C      20.99      16.72      15.79
C      21.69      17.34      14.74
C      24.71      19.15       9.30
C      19.82      14.74      16.61
C      -4.02      30.06      18.98
C      -2.94      30.21      19.90
C      -2.79      29.27      20.94
C      -3.68      28.19      21.09
C      -4.76      28.02      20.18
C      -4.91      28.97      19.14
C      -3.42      27.24      22.11
C      -2.52      26.16      21.92
C      -2.34      25.24      22.98
C      -3.02      25.39      24.21
C      -3.92      26.47      24.40
C      -4.10      27.39      23.34
C      -4.16      30.91      17.90
C      -2.79      24.47      25.21
C       2.34      33.26       1.78
C       1.94      32.25       2.69
C       1.05      32.59       3.74
C       0.55      33.90       3.88
C       0.95      34.92       2.97
C       1.85      34.57       1.93
C      -0.39      34.15       4.91
C      -1.78      33.92       4.71
C      -2.67      34.21       5.78
C      -2.20      34.73       7.01
C      -0.81      34.97       7.19
C       0.07      34.67       6.13
C       3.15      32.96       0.69
C      -3.11      34.99       8.01
C       1.94      26.15      36.19
C       1.27      27.01      37.10
C       2.00      27.60      38.15
C       3.39      27.38      38.29
C       4.07      26.53      37.39
C       3.32      25.93      36.35
C       4.07      28.08      39.32
C       4.57      29.40      39.13
C       5.27      30.01      40.19
C       5.48      29.35      41.42
C       4.99      28.03      41.60
C       4.29      27.42      40.55
C       1.27      25.60      35.11
C       6.16      30.01      42.42
C      33.14       3.36      42.26
C      32.47       2.80      43.37
C      32.70       1.45      43.71
C      33.58       0.64      42.96
C      34.28       1.19      41.85
C      34.04       2.55      41.52
C       7.81      43.94      43.27
C       8.33      43.44      44.49
C       8.13      42.07      44.79
C       7.44      41.20      43.92
C       6.95      41.70      42.69
C       7.14      43.06      42.38
C      32.84       4.63      41.81
C       7.16      39.90      44.33
C      12.25      14.43      25.05
C      12.10      15.30      26.17
C      10.81      15.77      26.50
C       9.67      15.41      25.75
C       9.80      14.53      24.65
C      11.09      14.06      24.32
C       8.45      16.08      26.06
C       7.76      15.88      27.28
C       6.67      16.73      27.59
C       6.26      17.77      26.71
C       6.94      17.94      25.48
C       8.03      17.09      25.17
C      13.50      14.06      24.60
C       5.28      18.66      27.12
C      32.29      26.99       7.84
C      33.11      26.69       8.96
C      34.16      27.56       9.29
C      34.42      28.73       8.55
C      33.59      29.06       7.44
C      32.53      28.18       7.11
C     -16.00      29.45       8.85
C     -15.82      30.15      10.08
C     -14.54      30.67      10.38
C     -13.44      30.51       9.51
C     -13.63      29.83       8.28
C     -14.91      29.31       7.97
C      31.33      26.09       7.40
C     -12.17      30.91       9.92
C      -7.16      41.39      16.45
C      -6.49      41.95      17.56
C      -6.72      43.31      17.90
C      -7.60      44.11      17.15
C      -8.30      43.56      16.05
C      -8.07      42.20      15.71
C      18.17       0.81      17.46
C      17.65       1.31      18.68
C      17.84       2.68      18.98
C      18.53       3.55      18.11
C      19.02       3.05      16.88
C      18.84       1.69      16.57
C      -6.86      40.12      16.00
C      18.82       4.85      18.52
C      13.73      30.32      50.86
C      13.88      29.46       0.36
C      15.17      28.98       0.69
C      16.31      29.34      51.56
C      16.18      30.22      50.46
C      14.88      30.70      50.13
C      17.53      28.67       0.25
C      18.22      28.87       1.47
C      19.31      28.02       1.78
C      19.72      26.98       0.90
C      19.04      26.81      51.29
C      17.95      27.66      50.98
C      12.47      30.69      50.41
C      20.70      26.09       1.31
C      -6.31      17.76      33.65
C      -7.13      18.07      34.77
C      -8.18      17.19      35.10
C      -8.44      16.02      34.36
C      -7.61      15.69      33.25
C      -6.56      16.57      32.92
C      41.98      15.30      34.66
C      41.80      14.60      35.89
C      40.52      14.08      36.19
C      39.42      14.24      35.32
C      39.61      14.92      34.09
C      40.88      15.44      33.78
C      -5.35      18.66      33.20
C      38.15      13.85      35.72
N      33.72       5.39      41.26
N      31.30      13.40      43.37
N      29.78      10.72      34.32
N      37.97      12.78      36.42
N      13.72      12.91      24.06
N      21.87      11.01      26.16
N      20.30      13.66      17.11
N      17.99       5.54      19.21
N      30.23      26.47       6.85
N      24.51      20.37       8.95
N      27.58      20.40      51.52
N      21.71      26.46       2.00
N      -7.74      39.36      15.45
N      -5.32      31.35      17.56
N      -3.80      34.03       8.51
N     -11.99      31.97      10.61
N      12.26      31.84      49.87
N       4.11      33.74       0.35
N       5.68      31.09      42.92
N       7.99      39.21      45.02
N      -4.25      18.28      32.66
N       1.47      24.38      34.76
N      -1.61      24.35      25.71
N       4.27      18.29      27.82
N      27.82      18.80      46.57
N      31.62      17.76      46.06
N      28.02      13.46      45.56
N      30.63      18.01      51.39
N      28.28      11.32      29.36
N      25.48       8.55      28.86
N      23.56      13.82      28.35
N      26.19       9.28      34.18
N      21.58      14.66      12.15
N      20.57      18.47      11.65
N      26.10      17.50      11.15
N      20.85      17.49      16.98
N      -1.84      25.95      20.76
N      -5.64      26.99      20.25
N      -2.04      31.29      19.75
N      -4.65      26.74      25.58
N      -2.30      33.43       3.55
N       0.50      36.20       3.05
N       2.42      30.93       2.54
N      -0.21      35.47       8.37
N       4.40      30.09      37.96
N       5.41      26.28      37.46
N      -0.12      27.25      36.96
N       5.13      27.26      42.79
N       9.00      44.22      45.38
N      35.16       0.48      41.10
N      31.56       3.59      44.13
N       6.26      40.84      41.79
N       8.10      14.90      28.17
N       8.74      14.12      23.90
N      13.24      15.69      26.92
N       6.54      18.97      24.59
N     -16.84      30.34      10.97
N      33.77      30.18       6.69
N      32.88      25.51       9.71
N     -12.54      29.66       7.38
N      16.98       0.53      19.57
N      -9.18      44.27      15.29
N      -5.58      41.16      18.32
N      19.71       3.91      15.98
N      17.88      29.85       2.36
N      17.24      30.63      49.71
N      12.74      29.06       1.11
N      19.44      25.79      50.39
N      42.82      14.41      36.78
N      -7.79      14.57      32.50
N      -6.90      19.25      35.52
N      38.52      15.09      33.19
O      31.45      18.93       0.03
O      26.84      13.86      45.37
O      29.88      17.84       0.76
O      28.02      12.71      46.57
O      26.58       8.11      34.44
O      24.49      14.64      28.16
O      26.41      10.02      35.17
O      22.90      14.19      29.36
O      19.65      17.74      17.24
O      26.34      16.28      10.96
O      21.38      16.93      17.97
O      26.75      17.89      12.16
O      -5.47      25.82      25.84
O      -0.86      30.89      19.56
O      -3.90      26.92      26.57
O      -2.05      32.04      20.76
O      -0.60      36.64       8.63
O       1.49      30.11       2.35
O      -0.44      34.73       9.36
O       3.08      30.56       3.55
O       6.33      27.01      43.04
O      -0.36      28.47      36.77
O       4.60      27.83      43.78
O      -0.77      26.87      37.96
O       5.08      41.22      41.59
O      30.39       3.12      44.09
O       6.85      40.76      40.68
O      31.92       3.69      45.32
O       7.46      19.80      24.39
O      13.41      16.93      26.89
O       6.18      18.49      23.48
O      13.14      15.33      28.12
O     -12.28      28.45       7.18
O      33.87      24.73       9.68
O     -12.77      30.21       6.27
O      32.61      25.77      10.91
O      20.89       3.53      15.78
O      -4.42      41.64      18.28
O      19.12       3.99      14.87
O      -5.94      41.06      19.52
O      18.51      24.96      50.20
O      12.57      27.82       1.08
O      19.80      26.26      49.29
O      12.84      29.43       2.31
O      38.26      16.30      32.99
O      -7.89      20.02      35.49
O      38.75      14.54      32.08
O      -6.63      18.98      36.72
