54

Si       4.26      11.62      23.47
C       5.78      10.78      22.77
C       6.54      11.28      21.71
C       7.63      10.58      21.22
C       7.97       9.35      21.77
C       7.23       8.84      22.83
C       6.15       9.55      23.32
C       9.13       8.55      21.24
C       2.75      10.67      22.94
C       2.86       9.57      22.06
C       1.74       8.82      21.70
C       0.51       9.10      22.26
C       0.38      10.19      23.12
C       1.48      10.97      23.43
C      -0.67       8.21      22.01
C       4.16      13.40      22.89
C       4.97      14.38      23.44
C       4.95      15.69      22.98
C       4.11      16.05      21.95
C       3.28      15.09      21.39
C       3.30      13.78      21.86
C       4.12      17.46      21.43
C       4.48      11.57      25.34
C       3.51      11.15      26.24
C       3.73      11.20      27.62
C       4.95      11.67      28.10
C       5.94      12.06      27.21
C       5.72      11.99      25.85
C       5.25      11.78      29.55
H       6.31      12.12      21.33
H       8.14      10.93      20.50
H       7.47       8.01      23.22
H       5.65       9.19      24.04
H       3.71       9.35      21.71
H       1.83       8.11      21.07
H      -0.47      10.40      23.51
H       1.37      11.74      23.98
H       5.56      14.15      24.16
H       5.52      16.34      23.38
H       2.69      15.33      20.68
H       2.72      13.14      21.47
H       2.68      10.83      25.92
H       3.06      10.92      28.23
H       6.77      12.38      27.54
H       6.41      12.23      25.25
H       4.58      11.59      31.21
O       9.72       8.89      20.19
O       9.46       7.50      21.87
O      -1.39       7.95      23.00
O      -0.88       7.77      20.84
O       3.38      17.77      20.47
O       4.92      18.29      21.98
O       6.36      12.12      29.94
O       4.26      11.51      30.37
