54

Si       7.33       5.01      12.06
H       9.38       5.51      14.21
H      11.21       4.33      15.03
H      10.54       1.40      12.31
H       8.72       2.59      11.49
H       6.78       2.74      13.82
H       4.90       1.51      14.46
H       2.60       3.79      12.03
H       4.44       5.13      11.55
H       8.63       7.55      11.37
H       8.59       9.73      12.15
H       5.76       8.72      14.85
H       5.79       6.53      14.06
H       5.75       4.23       9.61
H       6.13       4.32       7.31
H       9.85       5.77       7.99
H       9.48       5.63      10.28
H       7.65       4.98       4.32
O      12.79       2.28      15.34
O      12.53       0.89      13.66
O       1.68       1.35      12.53
O       2.19       1.16      14.69
O       6.45      11.16      15.06
O       7.99      11.69      13.56
O       9.43       5.51       5.59
O       7.33       4.91       5.16
C       8.85       4.18      12.77
C       9.61       4.68      13.82
C      10.70       3.97      14.32
C      11.04       2.74      13.76
C      10.31       2.24      12.70
C       9.22       2.95      12.22
C      12.20       1.94      14.29
C       5.82       4.06      12.59
C       5.93       2.97      13.47
C       4.81       2.21      13.83
C       3.58       2.49      13.27
C       3.45       3.59      12.41
C       4.55       4.37      12.10
C       2.40       1.61      13.52
C       7.23       6.79      12.64
C       8.04       7.78      12.09
C       8.02       9.08      12.55
C       7.18       9.44      13.58
C       6.35       8.49      14.14
C       6.37       7.18      13.67
C       7.19      10.85      14.10
C       7.55       4.96      10.20
C       6.58       4.55       9.29
C       6.81       4.60       7.91
C       8.02       5.06       7.43
C       9.01       5.46       8.32
C       8.79       5.39       9.68
C       8.33       5.18       5.98
