150

C      13.38      13.19       5.55
C       1.24      12.86       4.84
C       1.33      13.06       3.45
C       0.19       0.19       2.74
C      12.30       0.47       3.42
C      12.26       0.35       4.82
C       1.45       1.02      22.52
C       1.92       2.10      21.75
C       1.84       2.08      20.34
C       1.36       0.92      19.70
C       0.93      13.12      20.45
C       0.94      13.19      21.86
C       0.86       0.63      25.97
C      13.03      13.56      26.69
C      12.99      13.66      28.10
C       0.84       0.75      28.79
C       2.01       1.09      28.09
C       2.00       1.07      26.68
C      12.39       0.16       8.93
C      11.50       1.10       9.50
C      11.15       1.02      10.86
C      11.68      13.30      11.65
C      12.60      12.38      11.12
C      12.94      12.46       9.75
C       8.39      13.23      32.05
C       8.36      11.81      32.05
C       6.61      11.80      33.86
C       6.59      13.22      33.88
C       4.98       0.02       0.33
C       4.09      12.61       1.15
C       4.17      11.19       1.13
C       5.09      10.54       0.30
C       9.22      11.08      31.20
C      10.15      11.74      30.39
C      10.24      13.15      30.38
C       9.33       0.56      31.20
C       6.58       1.54      32.07
C       6.61       2.95      32.08
C       8.39       2.94      33.87
C       8.41       1.52      33.87
C       8.60       3.14       0.28
C       9.53       2.47       1.08
C       9.60       1.06       1.10
C       8.68       0.34       0.29
C       5.64       0.90      31.22
C       4.74       1.63      30.40
C       4.82       3.04      30.42
C       5.75       3.69      31.23
C       7.49       0.72      32.97
C       7.51       3.72      32.97
C       7.48      11.03      32.95
C      10.62       0.40       1.76
C      11.27       0.49      29.71
C       3.71       0.98      29.72
C       3.07      13.25       1.85
C       1.77       8.59      14.68
C       3.18       8.64      14.59
C       3.40       6.81      16.32
C       1.98       6.72      16.43
C       1.44       5.73      17.29
C       2.24       4.82      18.01
C       3.65       4.95      17.90
C       4.21       5.93      17.08
C       3.80       9.57      13.72
C       3.03      10.46      12.95
C       1.62      10.44      13.03
C       1.01       9.50      13.89
C      13.56       6.70      14.74
C      12.15       6.60      14.90
C      12.21       8.33      16.74
C      13.61       8.45      16.61
C      11.51       9.15      17.67
C      12.19      10.11      18.42
C      13.59      10.28      18.30
C       0.97       9.42      17.42
C       0.88       5.88      13.76
C      13.45       5.00      12.95
C      12.05       4.92      13.11
C      11.42       5.71      14.08
C       1.07       7.62      15.62
C      11.41       7.39      15.91
C       4.06       7.77      15.41
C       0.95      11.33      18.92
C       0.93      11.44      12.37
C       0.73       4.25      12.06
C       1.66       3.77      18.72
H       0.23       0.28       1.72
H      11.38       0.57       5.31
H       2.05      12.50       5.35
H       1.32       0.89      18.68
H       0.61      12.39      22.41
H       2.29       2.94      22.22
H       0.83       0.79      29.81
H       2.85       1.34      26.17
H      12.20      13.23      26.19
H      11.39      13.23      12.63
H       0.23      11.75       9.34
H      11.09       1.83       8.91
H       4.17       3.61      29.87
H       5.76       4.71      31.25
H       8.61       4.16       0.27
H      10.20       3.04       1.62
H       8.73      12.64       0.28
H       5.58      13.19      31.23
H       4.93       1.04       0.32
H       3.53      10.62       1.68
H       5.09       9.52       0.28
H       9.39       1.58      31.22
H       9.21      10.06      31.20
H      10.80      11.17      29.83
H       8.14       4.36      32.35
H       6.88       4.37      33.60
H       8.12      10.39      33.56
H       6.84      10.40      32.33
H       3.40      13.41      30.06
H      10.93      12.83       1.41
H      11.56       1.38      30.04
H       2.76       0.82       1.52
H      11.49       4.29      12.54
H      10.40       5.63      14.18
H      10.50       9.07      17.76
H      11.64      10.72      19.04
H       1.98       9.53      17.31
H       1.89       5.93      13.65
H       0.42       5.64      17.35
H       4.27       4.30      18.39
H       5.23       5.98      17.00
H      13.30       9.49      13.97
H       4.82       9.62      13.66
H       3.51      11.14      12.36
H      10.65       7.98      15.38
H      10.91       6.70      16.58
H       4.71       8.41      16.02
H       4.69       7.20      14.72
H       1.16       3.73      11.44
H       1.85      11.58      18.58
H      13.44      11.79      12.84
H       0.74       3.49      18.46
N      13.35      13.00       6.87
N       2.42      12.67       2.80
N      11.24       0.93       2.76
N       1.51       1.13      23.84
N       2.27       3.13      19.65
N       0.43      12.04      19.86
N       0.81       0.54      24.65
N      11.91      13.24      28.75
N       3.09       1.53      28.74
N      12.57       0.25       7.62
N      10.33       1.84      11.34
N      13.04      11.30      11.93
