14

C      -2.91       4.11      10.83
O      -2.58       5.06      11.63
Cu      -3.63       6.72      11.66
O      -3.88       4.13      10.00
Cu      -5.03       5.72       9.93
C      -5.80       5.18      12.61
O      -2.54       7.46      10.20
C      -5.75       8.33      10.76
O      -3.85       6.53       8.57
O      -4.77       8.32      11.59
O      -6.09       7.38       9.97
C      -2.87       7.25       8.97
O      -4.82       5.91      13.01
O      -6.13       4.98      11.39
