14

Cu       0.74      19.15       9.93
O       1.82      19.89      11.39
O       0.51      18.97      13.02
Cu      -0.67      18.17      11.66
O       0.48      16.57      11.59
O       1.79      17.50       9.97
C       1.45      16.55      10.76
O      -0.45      18.35       8.57
O      -1.76      17.43      10.19
C      -1.39      20.77      10.82
C       1.49      19.69      12.61
O      -0.41      20.75      10.00
O      -1.73      19.82      11.61
C      -1.43      17.63       8.97
