112

Zn       5.45       4.44      13.67
Zn       2.49       4.44      13.67
H       1.79       2.85      18.64
H       2.50       6.19      10.06
H       5.51       6.57      16.65
H       5.18       2.21      10.73
H       2.62       5.34      22.71
H       1.78       6.18      21.35
H       0.89       5.04      22.44
H       1.23       3.83      20.46
H       2.44       3.17      21.58
H       1.10       3.62       6.12
H       0.47       4.74       7.40
H       0.30       5.16       5.65
H       2.17       6.46       6.74
H       2.69       5.43       5.39
H       7.43       7.57      18.86
H       6.26       7.83      20.20
H      -0.08       7.55      20.56
H       7.17       5.40      20.98
H       7.67       5.24      19.30
H       5.80       0.49       8.30
H       5.05       0.63       6.66
H       6.80       0.24       6.82
H       6.59       2.59       6.18
H       7.22       2.50       7.83
H       4.73      -0.06      23.95
H       5.30       7.61       4.46
H       7.14       7.37      23.23
H       4.77       0.48       4.04
H       6.60       0.35       1.47
H       7.41       7.98      26.34
H       4.50       7.55       0.31
H       3.46       0.29      25.66
C       3.98       1.85      13.67
C       3.96       7.04      13.67
C       3.97       4.50      16.26
C       3.98       4.43      11.09
C       5.00       3.33      22.32
C       5.33       5.02       4.99
C       5.23       5.68      22.63
C       4.27       2.92       4.66
C       5.53       5.35      19.54
C       5.17       3.18       7.74
C       3.30       4.40      19.99
C       3.27       4.70       7.37
C       5.19       5.45      18.19
C       4.96       3.27       9.12
C       3.08       4.29      18.59
C       3.15       4.89       8.76
C       4.58       4.81      20.45
C       4.34       3.91       6.87
C       5.43       4.21      24.53
C       5.20       4.09       2.78
C       5.11       3.11      23.70
C       5.45       5.20       3.60
C       5.65       5.48      23.95
C       4.74       2.89       3.34
C       4.83       1.86      24.28
C       5.71       6.44       2.99
C       6.25       6.50      24.72
C       4.85       1.71       2.57
C       4.04       4.78      17.70
C       4.01       4.19       9.64
C       5.32       3.02       0.59
C       5.79       5.19      26.73
C       5.65       5.42       0.79
C       5.20       2.82      26.52
C       5.40       4.18       1.38
C       5.50       4.06      25.92
C       5.35       1.80       1.26
C       6.35       6.34      26.11
C       5.56       6.56       1.61
C       4.77       1.74      25.69
C       3.99       0.44      13.67
C       3.95       8.44      13.67
C       2.18       4.07      20.98
C       1.85       5.23      21.92
C       2.31       5.40       6.43
C       0.96       4.68       6.40
C       6.93       5.75      19.96
C       7.17       7.26      19.89
C       6.31       2.32       7.22
C       5.96       0.83       7.25
N       4.95       4.61      21.83
N       4.65       3.95       5.48
N       0.52       4.44      13.67
N       7.42       4.44      13.67
O       5.09       2.47      13.67
O       2.85       6.41      13.67
O       5.06       6.41      13.67
O       2.87       2.47      13.67
O       5.07       4.42      15.62
O       2.87       4.46      11.72
O       5.08       4.46      11.72
O       2.86       4.42      15.62
O       4.90       2.29      21.46
O       5.86       5.92       5.86
O       5.03       6.93      22.17
O       3.44       1.97       5.13
O       1.97       3.65      18.07
O       2.20       5.80       9.20
O       6.05       6.13      17.35
O       5.73       2.47       9.95
O       4.55       0.78      23.46
O       5.96       7.58       3.72
O       6.81       7.62      24.13
O       4.58       0.47       3.07
O       6.13       0.80       0.72
O       7.05       7.24      26.89
O       5.01       7.73       1.14
O       4.15       0.65      26.27
