88

Cu       6.93       1.48       4.24
Cu      11.21       5.39       2.74
Cu       8.78      12.92       9.73
Cu       4.51       9.01      11.22
H       8.35       1.79       0.47
H       9.49       3.39       4.33
H       6.05       4.32       5.26
H       7.72       4.11       5.88
H       5.52       3.81       2.95
H       6.82       3.27       1.84
H       5.50       6.06       3.76
H      10.77       4.01       6.51
H       9.07       3.02       2.64
H       8.45       6.53       1.72
H       8.51       4.84       1.10
H       9.01       7.00       4.03
H       9.44       5.65       5.14
H       6.77       7.22       3.22
H       7.36      12.61      13.49
H       6.23      11.01       9.64
H       9.67      10.08       8.71
H       8.00      10.29       8.09
H      10.19      10.59      11.02
H       8.89      11.14      12.12
H      10.21       8.34      10.21
H       4.95      10.39       7.46
H       6.65      11.38      11.32
H       7.26       7.88      12.25
H       7.20       9.56      12.86
H       6.71       7.40       9.93
H       6.28       8.75       8.83
H       8.95       7.18      10.74
C      10.01       9.84       1.12
C      10.94       8.82       0.84
C       9.08       1.01       0.27
C       9.05       9.80       2.28
C      11.12       7.63       1.73
C       7.11       4.42       5.02
C       6.58       3.93       2.68
C       2.61       3.08       5.87
C       3.54       2.06       6.14
C      11.48       3.22       6.71
C       2.73       4.03       4.71
C       4.72       1.78       5.26
C       8.26       5.48       1.96
C       8.80       5.96       4.30
C       5.70       4.57      12.85
C       4.78       5.59      13.12
C       6.64      13.39      13.70
C       6.66       4.61      11.69
C       4.60       6.78      12.24
C       8.61       9.98       8.95
C       9.14      10.47      11.29
C      13.11      11.33       8.10
C      12.17      12.34       7.83
C       4.23      11.18       7.25
C      12.98      10.38       9.26
C      11.00      12.63       8.70
C       7.46       8.93      12.01
C       6.92       8.44       9.66
C       8.85       3.68       3.49
C       6.56       6.18       3.49
C       6.87      10.73      10.48
C       9.16       8.22      10.48
N       7.42       3.51       3.86
N       7.39       5.81       4.65
N       9.14       5.09       3.12
N       6.86       5.32       2.33
N       8.30      10.89      10.10
N       8.32       8.60       9.31
N       6.57       9.32      10.85
N       8.86       9.09      11.64
O       8.09       1.03       2.84
O       8.41       8.79       2.60
O       1.13       6.45       1.13
O      11.29       7.72       2.97
O      11.54       4.23       4.16
O       3.80       4.54       4.36
O       6.77      11.62       5.86
O       4.62       1.61       4.02
O       7.62      13.37      11.12
O       7.30       5.62      11.37
O      14.59       7.95      12.83
O       4.43       6.69      11.00
O       4.17      10.17       9.80
O      11.91       9.86       9.61
O       8.95       2.78       8.11
O      11.10      12.80       9.94
