22

H       9.75       7.60      20.58
H       9.05       8.86      21.61
H       9.38       8.78      24.02
H      10.31       7.45      24.74
H      11.27       5.74      23.33
H      11.02       5.79      21.56
H      12.26      10.39      22.47
H      10.49      10.46      22.72
H      12.16       7.49      20.25
H      13.22       8.67      21.07
H      12.69       7.31      24.41
H      13.53       8.57      23.46
N      10.01       7.29      22.66
N      11.15       9.00      21.33
N      11.47       8.91      23.76
N      12.43       7.17      22.32
C       9.91       8.20      21.48
C      10.25       8.13      23.89
C      11.19       6.40      22.46
C      11.35       9.79      22.60
C      12.31       8.07      21.18
C      12.61       7.99      23.55
