22

O       8.01      16.74       8.04
O      10.07      17.68       8.24
O      13.08       9.05       7.58
O      11.12       8.13       6.87
H       8.19      14.34       7.29
H       8.14      11.90       6.65
H       9.33       9.71       6.48
H      12.92      11.47       8.00
H      13.00      13.89       8.53
H      11.83      16.10       8.69
C       9.29      16.68       8.10
C       9.94      15.34       7.99
C       9.24      14.23       7.55
C       9.87      12.96       7.43
C       9.19      11.81       6.95
C       9.83      10.60       6.86
C      11.19      10.46       7.25
C      11.89      11.58       7.70
C      11.26      12.84       7.79
C      11.95      13.99       8.24
C      11.32      15.21       8.33
C      11.85       9.12       7.23
