110

Cd       5.96      -0.09      12.12
Cd       1.35       6.96       4.69
H       5.99      10.75       9.22
H       3.26       8.25       7.01
H       5.92       3.94       9.38
H       5.55       2.70       8.19
H       3.63       3.17       6.42
H       1.37       9.79       7.61
H       0.98      12.72       7.21
H       4.09      12.29       9.82
H       5.34      10.06       5.44
H       6.52       9.16       4.44
H       4.89       8.48       4.76
H       0.93       6.45       8.03
H       6.36       7.78       9.61
H       3.69       3.69      10.39
H       2.12       1.88       9.61
H       3.23       1.49       8.31
H       6.40       0.40       8.77
H       0.81      11.27      12.33
H       2.32      12.21      12.16
H       2.19      10.61      11.40
H       5.23       4.96       7.18
H       4.13       5.41       8.46
H       1.39       2.99       7.47
H       1.83       4.21       8.67
H       1.33       4.15       1.79
H       4.06       1.20      14.44
H       1.40      11.00       1.95
H       1.77       9.75       0.75
H       3.69       9.77      13.86
H       5.95       3.19       0.18
H       6.34       5.67      14.65
H       3.23       5.69       2.39
H       1.99       3.01      12.87
H       0.80       2.11      11.88
H       2.42       1.42      12.20
H       6.39      13.50       0.60
H       0.96       1.18       2.17
H       3.63      10.75       2.96
H       5.20       8.94       2.17
H       4.08       8.54       0.88
H       0.92       7.46       1.34
H       6.51       4.67       4.89
H       5.00       5.61       4.73
H       5.13       4.01       3.97
H       2.09      11.56      14.62
H       3.19      12.46       1.02
H       5.92      10.04       0.03
H       5.49      11.25       1.23
C       4.97      10.55       8.88
C       6.27       8.40       6.40
C       2.63      11.10       8.77
C       3.43       9.15       7.60
C       5.10       3.50       8.79
C       4.71       1.86      10.63
C       3.29       3.99       7.08
C       2.38       9.99       7.96
C       0.78      12.72       8.27
C       3.92      11.39       9.23
C       5.72       9.07       5.19
C       4.72       9.44       8.06
C       0.15       7.14       7.75
C       6.56       7.80       8.54
C       4.05       2.89       9.73
C       2.87       2.32       8.93
C       7.18      13.38       9.06
C       1.08      12.15      10.42
C       2.64       5.03       6.16
C       1.63      11.52      11.65
C       4.48       4.56       7.87
C       2.24       3.40       8.04
C       2.35       3.94       1.44
C       1.05       1.35      13.84
C       4.69       4.50       1.33
C       3.89       2.55       0.17
C       2.21      10.56       1.35
C       2.61       8.91       3.20
C       4.03      10.59      14.51
C       4.94       3.39       0.52
C       6.54       6.12       0.84
C       3.40       4.79       1.80
C       1.60       2.01      12.63
C       2.60       2.84       0.63
C       7.17       0.54       0.32
C       0.76       1.20       1.11
C       3.27       9.94       2.30
C       4.45       9.37       1.50
C       0.13       6.78       1.62
C       6.24       5.55       2.99
C       4.68      11.63      13.60
C       5.69       4.92       4.21
C       2.84      11.61       0.43
C       5.08      10.45       0.60
N       1.55      11.95       9.15
N       0.06      13.01      10.38
N       7.28       7.53       6.44
N       5.81       8.60       7.68
N       5.77       5.35       1.71
N       7.26       6.41       2.94
N       0.04       0.47      13.87
N       1.51       1.99       0.25
O       2.98       6.26       6.28
O       4.40       0.62      10.49
O       1.76       4.64       5.33
O       5.56       2.25      11.49
O       4.33      12.86      13.72
O       2.92       7.67       3.05
O       5.57      11.25      12.77
O       1.76       9.30       4.06
