13

Zn       8.03      16.16       5.41
C      10.66      15.34       6.75
C      10.72      17.35       5.99
C       8.30      13.91       3.22
N       7.90      17.91       4.36
N       7.79      14.40       4.38
N       6.36      16.00       6.57
C       7.81      18.06       3.00
C       7.33      19.03       4.85
C       6.90      13.44       4.79
C       5.07      15.83       6.21
C       6.40      15.67       7.89
N       9.88      16.30       6.21
