13

N      12.47       2.25      10.52
Zn      14.31       2.40      11.32
C      11.69       3.21       9.98
C      11.62       1.20      10.74
N      14.44       0.64      12.38
C      14.04       4.64      13.51
N      14.56       4.16      12.36
N      15.98       2.56      10.17
C      14.53       0.49      13.73
C      15.01      -0.48      11.88
C      15.44       5.11      11.95
C      17.28       2.73      10.53
C      15.94       2.89       8.84
