11

H       8.75       5.28       0.46
C       8.67       4.23       0.18
H       9.65       1.95      -2.15
C       9.17       2.37      -1.27
C       7.92       3.35       0.96
C       9.31       3.76      -0.99
C       8.40       1.58      -0.43
H       7.42       3.71       1.85
N       7.77       2.03       0.68
H       8.28       0.51      -0.65
O      10.01       4.56      -1.77
