11

H       5.77       8.75      10.70
H       9.10       9.65      13.31
C       6.82       8.67      10.98
H       7.34       7.42       9.31
C       7.70       7.92      10.20
N       9.02       7.77      10.48
C       7.29       9.31      12.15
C       8.68       9.17      12.43
C       9.47       8.40      11.59
H      10.54       8.28      11.81
O       6.49      10.01      12.93
