11

C       2.38       4.23       5.41
C       1.89       2.37       6.85
C       3.12       3.35       4.63
C       2.65       1.58       6.01
C       1.74       3.76       6.58
H       1.40       1.94       7.73
N       3.28       2.03       4.90
H       2.30       5.28       5.13
O       1.06       4.56       7.37
H       3.62       3.72       3.73
H       2.77       0.51       6.23
