210

Cd       5.01       5.74      14.29
Cd       5.14       6.71       1.48
Cd       6.01       6.16      17.59
Cd       6.15       7.13       4.77
Cd       5.14       7.53       8.07
Cd       6.01       5.34      11.00
H       8.55      -0.63      14.02
H       2.07      11.57      10.44
H       0.76       1.52       9.18
H       1.46       8.35      14.76
H       3.36       0.36      14.07
H       6.57       3.83       5.15
H       9.59       0.76       2.35
H       0.18       1.75       6.22
H       2.61      13.51       5.05
H       8.43      -1.39      11.12
H       7.99       1.11      12.31
H       3.04       3.66       7.59
H       7.86       3.38       9.24
H       0.78      12.72       0.34
H      10.98      11.13      12.85
H       3.56       5.40       5.87
H       9.69       4.52       4.31
H       2.06      -0.03      18.16
H       7.62       4.06      15.41
H       3.54       8.82       3.66
H       9.68       9.74       5.23
H      10.96       0.40      15.76
H       0.41      11.41       5.74
H       2.72      14.26       7.95
H       3.30       9.50       9.83
H       8.11       2.31      17.14
H       3.04      10.57       1.93
H      10.38       0.16      18.73
H       2.59       0.72       4.48
H       2.68      -0.04       1.57
H       1.53      -0.60      11.88
H       7.77       1.71       4.54
H       7.82      10.87       0.30
H      10.77      10.06      15.27
H       0.19      12.47       3.31
H       8.57       4.57       0.17
H      10.40      11.36       9.89
H       2.58       3.19       9.69
H       9.62      13.47       7.19
H       9.08       1.31       8.63
H       4.59       2.45      14.66
H       3.17       2.46       2.77
H       7.60       7.47      13.20
H       9.09      12.91       0.91
H       3.17      11.77       6.76
H       1.48       3.13      13.83
H       8.58       9.69       9.37
H       8.57      12.16      14.59
H       8.12       9.22      11.47
H       8.48      12.92      17.49
H       0.39       2.82       3.80
H       2.59       8.30      18.89
H       7.99      10.42      16.30
H       7.80      12.52       5.00
H      10.75       1.47      13.33
H       1.57      12.12      16.71
H       3.33       2.01      18.76
H       6.57      10.42       4.41
H       3.39      11.16      14.52
H       4.58       9.05      13.92
C       2.82      12.13       3.39
C       7.85       3.03       8.20
C       4.05       1.90      15.42
C       9.61      12.58      11.99
C       3.36       0.74      15.09
C       3.42      10.19       5.31
C       3.30       9.84      10.87
C       9.84      10.10       6.25
C       3.37      10.78      13.51
C       8.34      11.14      14.29
C       7.79       8.50      13.49
C       9.60      -1.05      16.62
C       8.51      12.82       2.99
C       2.66      11.47      12.52
C      10.45       0.09       2.38
C       2.83      12.49       4.75
C       9.01       9.64       7.28
C       6.40       4.99       7.55
C       2.61       0.52      17.40
C       9.42      -2.34      17.13
C       3.31       4.13      12.07
C       9.02       4.64       2.26
C       7.12       3.27       5.90
C       1.56      13.93       2.45
C       3.07       3.41       6.54
C       3.86       9.19       6.31
C       7.14       3.75       7.23
C       9.43      13.87      11.48
C       2.82       1.74       4.78
C       1.54       0.30       7.08
C       0.61       0.50       1.92
C       6.35       9.27       1.99
C       4.05       2.38      16.75
C       9.85       4.16       3.29
C       0.65      13.73       7.61
C       1.30       8.72      15.77
C       2.13       8.24      16.80
C       3.43       4.03       4.22
C       3.28       7.33      16.52
C       3.36       4.37       5.58
C       0.67      -1.26      11.91
C      10.32      -0.15       6.67
C       0.95       9.63      18.41
C      10.98       2.75       1.70
C       8.09       9.47      12.53
C       8.09       2.06      16.08
C       0.32       9.66      16.05
C      10.85      11.02       6.52
C       7.73       8.85      14.85
C       8.32       0.39      14.32
C       0.14       1.39      11.23
C       0.83      13.02      12.40
C       7.80       3.03      15.11
C       7.11      10.98       3.64
C       7.11      10.50       2.32
C       4.76       7.89      11.52
C       1.74      15.21       1.94
C      10.34      14.37       2.87
C       0.92       1.89      10.19
C       7.87       5.55       2.55
C       3.14       2.71       3.83
C       8.02       1.36      13.37
C       1.31       2.78      12.82
C      10.54      12.38      17.14
C       9.22       4.19       0.95
C       8.54      12.36       1.67
C       9.24      10.07       8.59
C       4.02       9.12      11.84
C       2.81       2.10       6.14
C       1.72      -0.99       7.59
C       2.14       3.24      11.79
C      10.83      -0.61      16.15
C      10.49      14.13       7.16
C       7.83      11.21       1.34
C       4.80       3.60      17.08
C       8.50       1.41       6.54
C       0.71      12.78      16.69
C       8.02      10.17      15.24
C      10.24      10.99       8.88
C       0.30       1.85      12.54
C       2.64       0.05      16.08
C       7.28       7.85      15.85
C       7.30       3.69      12.75
C       7.74       2.68      13.76
C       0.32      13.48       2.92
C       2.61      11.01      11.20
C       8.33       0.75      15.68
C       7.80      12.14       3.98
C       0.18      10.13      17.36
C       3.07      10.81       2.99
C       0.30       0.74       6.61
C       3.35       9.85       3.95
C      10.20       3.25       0.66
C       7.84       8.75       7.00
C       4.04       9.60      13.17
C       7.78       2.10       5.56
C       1.93       8.68      18.12
C       8.34      10.78      12.93
C      10.85      12.13      12.46
C      10.84       3.21       3.02
C       8.54       1.87       7.87
C       3.14      11.52       5.70
C       0.82      -1.50      16.20
C      10.50      -0.85      11.46
C       3.33       1.67      17.73
C       3.87       5.03       3.22
C      11.01      11.48       7.83
C       1.92       2.81      10.47
O       3.58       4.36      13.30
O       7.62       5.80       3.77
O       6.89       4.85      13.17
O       5.29       7.20      12.46
O       5.87       5.68       6.61
O       8.50      -0.20      16.68
O       5.29       4.32      16.14
O       4.32       6.17       3.63
O      10.28       0.41      10.93
O       7.20       8.33       8.02
O       2.08      12.67      12.91
O       4.92       7.47      10.31
O       3.85       4.77       1.97
O       6.23       5.41       8.76
O      10.32      11.12      17.67
O       5.01       3.98      18.29
O       3.93       6.90      17.54
O       6.14       8.90       0.77
O       3.54       7.08      15.29
O       8.52      11.72      11.92
O       3.86       9.46       7.56
O       0.88      12.46       8.14
O       7.31       8.11      17.09
O       2.64       1.15       7.14
O       2.06      -1.14      15.69
O       2.66      13.08       2.39
O       4.27       8.03       5.90
O       6.84       6.70      15.43
O       9.10      14.02       3.38
O       7.23       5.97       1.53
O       5.86       8.55       2.92
O       7.57       8.51       5.77
O       3.95       4.54      11.05
O       7.29       3.41      11.51
O       9.08       0.21       6.16
O       0.83       1.76       1.40
