24

Eu       2.13       0.43       0.12
Eu      -2.14      -0.43      -0.12
C       4.17      -0.53       2.79
C       1.06       3.14       0.65
C       3.11      -2.42      -0.24
C       4.13       0.52      -2.79
C      -1.06      -3.14      -0.65
C       5.18       2.42       0.24
N       0.00       0.67      -2.56
N      -0.00      -0.67       2.56
O       0.07       0.24      -1.31
O       3.06      -0.09       2.36
O      -3.01      -0.58       2.19
O       1.30       2.39       1.65
O       1.41       2.75      -0.52
O       1.87      -2.20      -0.09
O       3.96      -1.45      -0.19
O      -0.07      -0.24       1.31
O      -3.06       0.09      -2.36
O       3.01       0.57      -2.19
O      -1.29      -2.39      -1.65
O      -1.41      -2.75       0.52
O      -1.88       2.21       0.07
O       4.34       1.45       0.19
