648

H      21.37      33.19      14.15
H      22.52      31.90      12.49
H      23.93      30.87      10.83
H       0.07      30.19       9.19
H       2.14      33.86       9.66
H      24.24       1.68      13.76
H      23.93       1.25       9.65
H       0.69       4.77       8.85
H       2.29       4.14      10.53
H       1.77      33.62      13.89
H       3.67       3.21      12.29
H       4.74       2.03      14.06
H       8.64       1.98      21.02
H       9.78       3.27      22.68
H      11.20       4.30      24.34
H      12.80       4.98      25.99
H      14.87       1.31      25.52
H      11.51      33.49      21.42
H      11.20      33.93      25.52
H      13.43      30.41      26.32
H      15.03      31.03      24.65
H      14.51       1.56      21.29
H      16.40      31.97      22.89
H      17.48      33.15      21.12
H       2.28      21.02      33.19
H       3.42      22.67      31.90
H       4.84      24.34      30.87
H       6.44      25.98      30.19
H       8.51      25.52      33.86
H       5.15      21.42       1.68
H       4.83      25.52       1.25
H       7.06      26.32       4.76
H       8.66      24.65       4.14
H       8.14      21.29      33.62
H      10.04      22.90       3.20
H      11.12      21.12       2.02
H      15.00      14.15       1.98
H      16.15      12.49       3.27
H      17.56      10.82       4.30
H      19.16       9.18       4.98
H      21.24       9.65       1.31
H      17.88      13.76      33.50
H      17.56       9.65      33.93
H      19.79       8.86      30.41
H      21.39      10.53      31.03
H      20.87      13.89       1.56
H      22.77      12.28      31.97
H      23.85      14.06      33.15
H      20.45       6.71       2.52
H      22.68       4.41       9.52
H      25.17       3.06       6.42
H      22.11       9.47       5.23
H      20.72       6.57       7.47
H      20.95       5.97       9.00
H      20.80       4.37       2.92
H      21.59       3.81       4.26
H       7.73      28.45      32.66
H       9.94      30.77      25.65
H      12.44      32.11      28.75
H       9.37      25.70      29.94
H       7.98      28.61      27.70
H       8.21      29.21      26.17
H       8.08      30.79      32.27
H       8.87      31.36      30.92
H       1.36      32.66       6.72
H       3.58      25.65       4.41
H       6.07      28.75       3.06
H       3.01      29.94       9.47
H       1.62      27.70       6.57
H       1.85      26.17       5.97
H       1.70      32.26       4.38
H       2.49      30.91       3.82
H      14.09       2.52      28.45
H      16.31       9.53      30.76
H      18.80       6.42      32.11
H      15.74       5.23      25.70
H      14.34       7.47      28.61
H      14.57       9.00      29.21
H      14.44       2.91      30.79
H      15.23       4.26      31.35
H      15.91      34.01      18.53
H      23.09       0.01      16.68
H      20.43       1.67      13.90
H      18.07       1.98      21.03
H      20.83       0.03      19.41
H      22.37      34.29      18.91
H      16.79      33.47      16.41
H      18.25      34.02      15.87
H       3.18       1.16      16.65
H      10.36       0.55      18.48
H       7.70      33.50      21.27
H       5.33      33.19      14.14
H       8.10       0.53      15.75
H       9.64       0.87      16.25
H       4.07       1.71      18.77
H       5.53       1.16      19.30
H      22.28      16.65      34.01
H       4.00      18.48       0.01
H       1.33      21.27       1.67
H      24.43      14.14       1.99
H       1.73      15.75       0.04
H       3.27      16.25      34.30
H      23.17      18.76      33.46
H      24.63      19.30      34.02
H       9.54      18.53       1.17
H      16.73      16.69       0.55
H      14.06      13.90      33.51
H      11.70      21.03      33.19
H      14.47      19.42       0.53
H      16.01      18.92       0.87
H      10.43      16.41       1.72
H      11.89      15.88       1.16
H      21.37      33.19      28.15
H      22.52      31.90      26.49
H      23.93      30.87      24.83
H       0.07      30.19      23.19
H       2.14      33.86      23.66
H      24.24       1.68      27.76
H      23.93       1.25      23.65
H       0.69       4.77      22.85
H       2.29       4.14      24.53
H       1.77      33.62      27.89
H       3.67       3.21      26.29
H       4.74       2.03      28.06
H       8.64       1.98       0.41
H       9.78       3.27       2.07
H      11.20       4.30       3.74
H      12.80       4.98       5.38
H      14.87       1.31       4.91
H      11.51      33.49       0.81
H      11.20      33.93       4.92
H      13.43      30.41       5.71
H      15.03      31.03       4.04
H      14.51       1.56       0.68
H      16.40      31.97       2.29
H      17.48      33.15       0.51
H       2.28      21.02      12.58
H       3.42      22.67      11.29
H       4.84      24.34      10.27
H       6.44      25.98       9.58
H       8.51      25.52      13.25
H       5.15      21.42      15.68
H       4.83      25.52      15.25
H       7.06      26.32      18.76
H       8.66      24.65      18.14
H       8.14      21.29      13.01
H      10.04      22.90      17.20
H      11.12      21.12      16.02
H      15.00      14.15      15.98
H      16.15      12.49      17.27
H      17.56      10.82      18.30
H      19.16       9.18      18.98
H      21.24       9.65      15.31
H      17.88      13.76      12.89
H      17.56       9.65      13.32
H      19.79       8.86       9.80
H      21.39      10.53      10.42
H      20.87      13.89      15.56
H      22.77      12.28      11.36
H      23.85      14.06      12.54
H      20.45       6.71      16.52
H      22.68       4.41      23.52
H      25.17       3.06      20.42
H      22.11       9.47      19.23
H      20.72       6.57      21.47
H      20.95       5.97      23.00
H      20.80       4.37      16.92
H      21.59       3.81      18.26
H       7.73      28.45      12.05
H       9.94      30.77       5.04
H      12.44      32.11       8.14
H       9.37      25.70       9.33
H       7.98      28.61       7.09
H       8.21      29.21       5.57
H       8.08      30.79      11.66
H       8.87      31.36      10.31
H       1.36      32.66      20.72
H       3.58      25.65      18.41
H       6.07      28.75      17.06
H       3.01      29.94      23.47
H       1.62      27.70      20.57
H       1.85      26.17      19.97
H       1.70      32.26      18.38
H       2.49      30.91      17.82
H      14.09       2.52       7.85
H      16.31       9.53      10.16
H      18.80       6.42      11.50
H      15.74       5.23       5.09
H      14.34       7.47       8.01
H      14.57       9.00       8.60
H      14.44       2.91      10.19
H      15.23       4.26      10.75
H      15.91      34.01      32.53
H      23.09       0.01      30.68
H      20.43       1.67      27.90
H      18.07       1.98       0.43
H      20.83       0.03      33.41
H      22.37      34.29      32.91
H      16.79      33.47      30.41
H      18.25      34.02      29.87
H       3.18       1.16      30.65
H      10.36       0.55      32.48
H       7.70      33.50       0.66
H       5.33      33.19      28.14
H       8.10       0.53      29.75
H       9.64       0.87      30.25
H       4.07       1.71      32.77
H       5.53       1.16      33.30
H      22.28      16.65      13.40
H       4.00      18.48      14.01
H       1.33      21.27      15.67
H      24.43      14.14      15.99
H       1.73      15.75      14.04
H       3.27      16.25      13.70
H      23.17      18.76      12.85
H      24.63      19.30      13.41
H       9.54      18.53      15.17
H      16.73      16.69      14.55
H      14.06      13.90      12.90
H      11.70      21.03      12.58
H      14.47      19.42      14.53
H      16.01      18.92      14.87
H      10.43      16.41      15.72
H      11.89      15.88      15.16
C       1.54       0.59      12.49
C       2.10       1.80      12.05
C       1.31       2.34      11.05
C       0.22       1.49      10.82
C      24.73       1.85       9.83
C      24.91       3.06       9.09
C       0.56       3.88       9.36
C       1.49       3.53      10.34
C       3.27       2.32      12.61
C       3.90       1.62      13.65
C       3.36       0.41      14.14
C       2.18      34.49      13.54
C      24.55      34.60      12.50
C      24.04      33.34      12.16
C      24.85      32.75      11.21
C       0.43      33.62      10.89
C      24.71      31.50      10.59
C       0.19      31.11       9.64
C       1.27      31.96       9.28
C       1.38      33.23       9.91
C      23.87       0.76      13.48
C      22.69       0.26      14.10
C      22.21      33.59      13.71
C      22.87      32.82      12.75
C       0.31       0.28      11.69
C      14.27      34.59      22.68
C      14.83      33.38      23.12
C      14.04      32.84      24.12
C      12.95      33.69      24.36
C      12.00      33.32      25.34
C      12.17      32.12      26.09
C      13.29      31.29      25.81
C      14.23      31.64      24.83
C      16.01      32.85      22.57
C      16.64      33.55      21.53
C      16.10       0.16      21.04
C      14.91       0.69      21.63
C      11.82       0.57      22.68
C      11.30       1.83      23.01
C      12.11       2.42      23.97
C      13.16       1.55      24.28
C      11.97       3.67      24.58
C      12.92       4.07      25.54
C      14.00       3.22      25.89
C      14.11       1.95      25.27
C      11.14      34.41      21.69
C       9.96       0.31      21.07
C       9.48       1.58      21.46
C      10.14       2.35      22.42
C      13.05       0.29      23.48
C       7.91      22.69       0.59
C       8.47      23.12       1.80
C       7.68      24.12       2.33
C       6.59      24.36       1.49
C       5.64      25.35       1.85
C       5.81      26.09       3.06
C       6.92      25.81       3.88
C       7.86      24.84       3.53
C       9.64      22.57       2.32
C      10.27      21.53       1.62
C       9.73      21.04       0.41
C       8.55      21.63      34.49
C       5.45      22.68      34.60
C       4.94      23.01      33.34
C       5.75      23.97      32.75
C       6.80      24.28      33.62
C       5.61      24.58      31.50
C       6.55      25.54      31.11
C       7.63      25.89      31.95
C       7.74      25.27      33.23
C       4.78      21.69       0.76
C       3.60      21.07       0.26
C       3.11      21.46      33.59
C       3.78      22.42      32.82
C       6.68      23.49       0.28
C      20.64      12.49      34.59
C      21.20      12.05      33.38
C      20.41      11.05      32.84
C      19.32      10.82      33.68
C      18.37       9.83      33.32
C      18.54       9.09      32.12
C      19.66       9.36      31.29
C      20.59      10.34      31.64
C      22.37      12.61      32.85
C      23.00      13.65      33.55
C      22.46      14.14       0.16
C      21.28      13.54       0.69
C      18.18      12.50       0.57
C      17.67      12.16       1.83
C      18.48      11.20       2.42
C      19.53      10.89       1.55
C      18.34      10.59       3.67
C      19.28       9.63       4.06
C      20.36       9.28       3.22
C      20.47       9.90       1.94
C      17.51      13.48      34.41
C      16.32      14.10       0.31
C      15.84      13.71       1.59
C      16.51      12.75       2.35
C      19.41      11.69       0.29
C      21.25       8.27       3.69
C      22.00       8.52       4.86
C      22.26       6.18       5.30
C      21.56       5.85       4.10
C      21.06       6.92       3.32
C      22.70       5.23       6.26
C      22.25       5.22       7.62
C      22.92       4.36       8.53
C      23.98       3.53       8.12
C      24.35       3.57       6.76
C       8.52      26.90      31.48
C       9.27      26.65      30.31
C       9.52      28.99      29.87
C       8.84      29.32      31.08
C       8.33      28.24      31.86
C       9.96      29.94      28.91
C       9.52      29.95      27.56
C      10.18      30.81      26.65
C      11.25      31.64      27.05
C      11.62      31.60      28.41
C       2.15      31.48       8.28
C       2.91      30.31       8.52
C       3.16      29.87       6.18
C       2.47      31.07       5.86
C       1.96      31.85       6.93
C       3.60      28.91       5.23
C       3.15      27.56       5.22
C       3.82      26.64       4.37
C       4.88      27.05       3.53
C       5.25      28.41       3.57
C      14.88       3.70      26.89
C      15.63       4.87      26.65
C      15.89       5.30      28.99
C      15.20       4.10      29.32
C      14.69       3.32      28.24
C      16.33       6.27      29.94
C      15.88       7.62      29.95
C      16.55       8.53      30.81
C      17.62       8.12      31.64
C      17.99       6.76      31.60
C      16.76       0.74      19.92
C      17.89       1.56      20.12
C      18.79       1.04      17.95
C      17.67       0.21      17.67
C      16.66       0.09      18.66
C      19.94       1.11      17.12
C      21.22       0.59      17.48
C      22.22       0.50      16.47
C      21.97       0.90      15.14
C      20.71       1.46      14.86
C       4.03      34.44      15.26
C       5.15      33.61      15.05
C       6.06      34.14      17.22
C       4.94       0.36      17.50
C       3.93       0.48      16.51
C       7.21      34.06      18.05
C       8.49      34.58      17.69
C       9.49       0.06      18.69
C       9.24      34.27      20.03
C       7.98      33.71      20.31
C      23.13      15.26       0.74
C      24.25      15.06       1.57
C      25.16      17.22       1.04
C      24.04      17.50       0.21
C      23.03      16.51       0.08
C       0.85      18.05       1.11
C       2.12      17.69       0.59
C       3.12      18.69       0.50
C       2.88      20.03       0.90
C       1.61      20.31       1.45
C      10.40      19.92      34.44
C      11.52      20.12      33.61
C      12.43      17.96      34.14
C      11.30      17.67       0.37
C      10.30      18.67       0.49
C      13.58      17.12      34.07
C      14.86      17.48      34.59
C      15.85      16.48       0.06
C      15.61      15.14      34.27
C      14.34      14.86      33.72
C       1.54       0.59      26.49
C       2.10       1.80      26.05
C       1.31       2.34      25.05
C       0.22       1.49      24.82
C      24.73       1.85      23.83
C      24.91       3.06      23.09
C       0.56       3.88      23.36
C       1.49       3.53      24.34
C       3.27       2.32      26.61
C       3.90       1.62      27.65
C       3.36       0.41      28.14
C       2.18      34.49      27.54
C      24.55      34.60      26.50
C      24.04      33.34      26.16
C      24.85      32.75      25.21
C       0.43      33.62      24.89
C      24.71      31.50      24.59
C       0.19      31.11      23.64
C       1.27      31.96      23.28
C       1.38      33.23      23.91
C      23.87       0.76      27.48
C      22.69       0.26      28.10
C      22.21      33.59      27.71
C      22.87      32.82      26.75
C       0.31       0.28      25.69
C      14.27      34.59       2.08
C      14.83      33.38       2.51
C      14.04      32.84       3.51
C      12.95      33.69       3.75
C      12.00      33.32       4.74
C      12.17      32.12       5.48
C      13.29      31.29       5.21
C      14.23      31.64       4.23
C      16.01      32.85       1.96
C      16.64      33.55       0.92
C      16.10       0.16       0.43
C      14.91       0.69       1.02
C      11.82       0.57       2.07
C      11.30       1.83       2.41
C      12.11       2.42       3.36
C      13.16       1.55       3.68
C      11.97       3.67       3.97
C      12.92       4.07       4.93
C      14.00       3.22       5.28
C      14.11       1.95       4.66
C      11.14      34.41       1.08
C       9.96       0.31       0.47
C       9.48       1.58       0.85
C      10.14       2.35       1.82
C      13.05       0.29       2.88
C       7.91      22.69      14.59
C       8.47      23.12      15.80
C       7.68      24.12      16.33
C       6.59      24.36      15.49
C       5.64      25.35      15.85
C       5.81      26.09      17.06
C       6.92      25.81      17.88
C       7.86      24.84      17.53
C       9.64      22.57      16.32
C      10.27      21.53      15.62
C       9.73      21.04      14.41
C       8.55      21.63      13.88
C       5.45      22.68      14.00
C       4.94      23.01      12.74
C       5.75      23.97      12.15
C       6.80      24.28      13.02
C       5.61      24.58      10.89
C       6.55      25.54      10.50
C       7.63      25.89      11.35
C       7.74      25.27      12.62
C       4.78      21.69      14.76
C       3.60      21.07      14.26
C       3.11      21.46      12.98
C       3.78      22.42      12.21
C       6.68      23.49      14.28
C      20.64      12.49      13.98
C      21.20      12.05      12.77
C      20.41      11.05      12.23
C      19.32      10.82      13.08
C      18.37       9.83      12.71
C      18.54       9.09      11.51
C      19.66       9.36      10.68
C      20.59      10.34      11.04
C      22.37      12.61      12.25
C      23.00      13.65      12.95
C      22.46      14.14      14.16
C      21.28      13.54      14.69
C      18.18      12.50      14.57
C      17.67      12.16      15.83
C      18.48      11.20      16.42
C      19.53      10.89      15.55
C      18.34      10.59      17.67
C      19.28       9.63      18.06
C      20.36       9.28      17.22
C      20.47       9.90      15.94
C      17.51      13.48      13.80
C      16.32      14.10      14.31
C      15.84      13.71      15.59
C      16.51      12.75      16.35
C      19.41      11.69      14.29
C      21.25       8.27      17.69
C      22.00       8.52      18.86
C      22.26       6.18      19.30
C      21.56       5.85      18.10
C      21.06       6.92      17.32
C      22.70       5.23      20.26
C      22.25       5.22      21.62
C      22.92       4.36      22.53
C      23.98       3.53      22.12
C      24.35       3.57      20.76
C       8.52      26.90      10.87
C       9.27      26.65       9.70
C       9.52      28.99       9.26
C       8.84      29.32      10.47
C       8.33      28.24      11.25
C       9.96      29.94       8.30
C       9.52      29.95       6.95
C      10.18      30.81       6.04
C      11.25      31.64       6.45
C      11.62      31.60       7.81
C       2.15      31.48      22.28
C       2.91      30.31      22.52
C       3.16      29.87      20.18
C       2.47      31.07      19.86
C       1.96      31.85      20.93
C       3.60      28.91      19.23
C       3.15      27.56      19.22
C       3.82      26.64      18.37
C       4.88      27.05      17.53
C       5.25      28.41      17.57
C      14.88       3.70       6.29
C      15.63       4.87       6.04
C      15.89       5.30       8.39
C      15.20       4.10       8.71
C      14.69       3.32       7.64
C      16.33       6.27       9.33
C      15.88       7.62       9.34
C      16.55       8.53      10.20
C      17.62       8.12      11.03
C      17.99       6.76      10.99
C      16.76       0.74      33.92
C      17.89       1.56      34.12
C      18.79       1.04      31.95
C      17.67       0.21      31.67
C      16.66       0.09      32.66
C      19.94       1.11      31.12
C      21.22       0.59      31.48
C      22.22       0.50      30.47
C      21.97       0.90      29.14
C      20.71       1.46      28.86
C       4.03      34.44      29.26
C       5.15      33.61      29.05
C       6.06      34.14      31.22
C       4.94       0.36      31.50
C       3.93       0.48      30.51
C       7.21      34.06      32.05
C       8.49      34.58      31.69
C       9.49       0.06      32.69
C       9.24      34.27      34.03
C       7.98      33.71      34.31
C      23.13      15.26      14.74
C      24.25      15.06      15.57
C      25.16      17.22      15.04
C      24.04      17.50      14.21
C      23.03      16.51      14.08
C       0.85      18.05      15.11
C       2.12      17.69      14.59
C       3.12      18.69      14.50
C       2.88      20.03      14.90
C       1.61      20.31      15.45
C      10.40      19.92      13.83
C      11.52      20.12      13.00
C      12.43      17.96      13.53
C      11.30      17.67      14.37
C      10.30      18.67      14.49
C      13.58      17.12      13.46
C      14.86      17.48      13.98
C      15.85      16.48      14.06
C      15.61      15.14      13.66
C      14.34      14.86      13.12
N      22.45       7.49       5.61
N      23.72       4.42       5.90
N      21.24       6.01       8.07
N      21.30       4.57       3.73
N       9.71      27.68      29.56
N      10.99      30.75      29.27
N       8.50      29.17      27.10
N       8.58      30.60      31.45
N       3.35      29.56       7.49
N       4.62      29.27       4.42
N       2.14      27.10       6.01
N       2.20      31.44       4.58
N      16.08       5.62      27.68
N      17.35       5.91      30.75
N      14.87       8.07      29.17
N      14.94       3.73      30.60
N      18.84       1.67      19.16
N      19.76       1.51      15.83
N      21.49       0.07      18.71
N      17.56      34.05      16.55
N       6.10      33.51      16.01
N       7.03      33.66      19.34
N       8.76       0.49      16.46
N       4.83       1.12      18.63
N      25.20      16.01       1.67
N       0.66      19.34       1.51
N       2.40      16.46       0.08
N      23.93      18.62      34.05
N      12.47      19.16      33.50
N      13.39      15.83      33.67
N      15.13      18.71       0.49
N      11.20      16.55       1.13
N      22.45       7.49      19.61
N      23.72       4.42      19.90
N      21.24       6.01      22.07
N      21.30       4.57      17.73
N       9.71      27.68       8.95
N      10.99      30.75       8.66
N       8.50      29.17       6.50
N       8.58      30.60      10.84
N       3.35      29.56      21.49
N       4.62      29.27      18.42
N       2.14      27.10      20.01
N       2.20      31.44      18.58
N      16.08       5.62       7.08
N      17.35       5.91      10.15
N      14.87       8.07       8.56
N      14.94       3.73       9.99
N      18.84       1.67      33.16
N      19.76       1.51      29.83
N      21.49       0.07      32.71
N      17.56      34.05      30.55
N       6.10      33.51      30.01
N       7.03      33.66      33.34
N       8.76       0.49      30.46
N       4.83       1.12      32.63
N      25.20      16.01      15.67
N       0.66      19.34      15.51
N       2.40      16.46      14.08
N      23.93      18.62      13.44
N      12.47      19.16      12.90
N      13.39      15.83      13.06
N      15.13      18.71      14.49
N      11.20      16.55      15.13
