29

C       1.90       5.12      14.62
C       1.19       5.65      13.55
C      -0.76       4.57      14.23
C      -0.11       4.01      15.31
N       0.86       5.28      22.97
N      -0.13       5.39      13.35
H       2.51       6.54      23.00
H       3.47       5.65      20.88
H       0.11       2.92      20.69
H      -0.70       3.91      22.81
H       3.40       3.88      19.13
H       2.17       2.61      19.21
H       0.48       4.22      18.20
H       1.75       5.42      18.03
H       1.78       2.62      16.76
H       3.06       3.81      16.56
H       2.96       5.34      14.71
H       1.67       6.31      12.82
H      -1.82       4.39      14.03
H      -0.66       3.35      15.98
C       2.01       5.74      22.44
C       2.53       5.24      21.25
C       1.85       4.23      20.56
C       0.67       3.73      21.15
C       0.21       4.27      22.34
C       2.32       3.70      19.24
C       1.56       4.34      18.05
C       1.98       3.70      16.71
C       1.25       4.28      15.53
