24

H       6.94       0.70       4.43
H       5.02      -1.27       3.70
H       6.46      -1.60       4.22
H       7.41      -0.52       2.34
H       4.74      -0.13       1.42
H       6.01       0.28       0.60
O       5.68       1.44       6.53
H       4.24       1.19       3.67
H       5.26       2.31       4.09
O       5.00      -0.66       6.33
O       7.41      -2.46       0.78
O       5.44      -2.89       1.60
H       6.57       1.91       2.20
O       5.27       3.48       0.79
O       3.53       2.36       1.44
C       6.00       0.41       4.43
C       5.94      -0.96       3.73
C       6.49      -0.84       2.29
C       5.65       0.19       1.50
C       5.66       1.56       2.20
C       5.18       1.45       3.66
C       5.53       0.38       5.87
C       6.45      -2.14       1.54
C       4.77       2.52       1.44
