11

C       2.46       2.99       1.68
Zn       4.62       4.23      -0.08
C       4.60       5.82       2.15
C       6.85       2.08      -0.26
C       6.79       3.00       1.68
O       4.65       4.67      -2.00
O       4.59       5.96       0.86
C       2.40       2.06      -0.25
N       6.21       3.05       0.45
C       4.63       3.61      -2.75
N       3.03       3.04       0.46
