45

C      -9.15       5.12      11.27
C      -9.54       3.79      11.19
C     -11.07       0.87      11.28
C     -11.96      -0.20      11.38
C     -13.27       0.00      11.86
C     -13.69       1.28      12.28
C     -13.03       3.79      12.57
C     -11.70       4.41      12.15
C     -10.83       3.44      11.63
C     -11.50       2.14      11.66
C     -12.81       2.34      12.18
C      -9.53       7.50      11.89
C     -14.24      -1.11      11.93
C     -13.29       3.94      14.10
C     -12.17       3.42      15.00
C     -12.50       3.60      16.49
C     -14.25       4.42      11.84
C     -14.20       4.42      10.31
C     -15.45       5.07       9.70
H     -11.97       6.48      12.66
H      -8.16       5.43      10.94
H      -8.87       3.03      10.79
H     -10.06       0.71      10.91
H     -11.65      -1.21      11.09
H     -14.70       1.40      12.66
H     -14.23       3.42      14.33
H     -13.47       5.01      14.30
O     -15.41      -0.90      12.35
O     -13.88      -2.31      11.52
O      -8.39       7.84      11.48
O     -10.32       8.40      12.45
H     -11.97       2.36      14.78
H     -14.37       5.45      12.20
H     -15.14       3.88      12.18
H     -11.24       3.96      14.76
H     -11.69       3.24      17.14
H     -12.66       4.66      16.73
H     -13.41       3.05      16.77
H     -13.30       4.94       9.97
H     -14.10       3.38       9.95
H     -15.42       5.05       8.60
H     -16.36       4.55      10.02
H     -15.54       6.12      10.02
C     -11.30       5.74      12.24
C     -10.01       6.10      11.80
