45

H      -0.27       3.05       0.11
H      -4.08       4.10       1.83
H      -3.37       6.50       1.98
H      -2.18       8.82       1.86
H      -0.58      10.74       1.68
H       2.46       8.13       0.11
H       1.99       6.11      -1.56
H       1.23       4.53      -1.53
H      -0.26       7.17      -2.01
H      -0.99       5.57      -1.99
H      -0.55       6.29      -4.37
H       0.43       4.87      -3.96
H       1.17       6.48      -4.00
H       2.13       4.08       0.56
H       2.90       5.65       0.59
H       1.06       4.59       2.80
H       1.86       6.15       2.82
H       3.19       4.48       4.16
H       4.13       4.98       2.75
H       3.31       3.41       2.75
O      -3.84       1.69       1.29
O      -1.92       1.13       0.32
O       3.17      10.43       0.41
O       1.64      11.84       1.25
C      -0.94       3.79       0.53
C      -2.22       3.43       0.97
C      -3.09       4.41       1.50
C      -2.69       5.74       1.58
C      -1.17       8.66       1.49
C      -0.28       9.73       1.39
C       1.03       9.53       0.90
C       1.45       8.25       0.49
C       0.79       5.74       0.20
C      -0.53       5.12       0.62
C      -1.41       6.09       1.14
C      -0.73       7.39       1.11
C       0.57       7.19       0.59
C      -2.70       2.03       0.88
C       2.00      10.64       0.83
C       1.05       5.59      -1.33
C      -0.07       6.11      -2.23
C       0.26       5.93      -3.72
C       2.01       5.11       0.93
C       1.96       5.11       2.46
C       3.21       4.46       3.07
