45

C       5.82      -0.57       3.78
C       4.53      -0.05       3.57
C       3.67       0.18       4.66
C       4.06      -0.12       5.96
C       5.59      -1.04       8.73
C       6.48      -1.44       9.73
C       7.78      -1.84       9.39
C       8.20      -1.88       8.05
C       7.55      -1.44       5.56
C       6.22      -0.86       5.08
C       5.34      -0.64       6.17
C       6.02      -1.04       7.40
C       7.32      -1.48       7.06
C       4.05       0.26       2.19
C       8.76      -2.23      10.44
C       7.81      -2.86       4.98
C       6.69      -3.88       5.22
C       7.02      -5.25       4.63
C       8.76      -0.56       5.16
C       8.72       0.90       5.60
C       9.97       1.67       5.15
O       2.91       0.75       1.99
O       4.84      -0.02       1.18
O       9.93      -2.57      10.12
O       8.39      -2.17      11.70
H       6.49      -0.76       2.95
H       2.68       0.59       4.45
H       3.39       0.05       6.79
H       4.58      -0.73       8.99
H       6.17      -1.44      10.77
H       9.22      -2.21       7.83
H       8.75      -3.24       5.42
H       7.99      -2.76       3.90
H       6.49      -3.96       6.30
H       5.76      -3.49       4.77
H       6.20      -5.98       4.79
H       7.18      -5.18       3.54
H       7.93      -5.68       5.08
H       8.89      -0.62       4.07
H       9.66      -1.04       5.59
H       7.81       1.38       5.19
H       8.62       0.96       6.70
H       9.94       2.72       5.48
H      10.88       1.22       5.56
H      10.06       1.67       4.05
