13

H      -1.30      11.50      11.33
C       1.58      13.04      11.00
H       2.57      12.94      11.45
H      -1.95      13.14       9.53
H       2.05      14.71       9.71
C      -0.95      13.13       9.95
C       1.29      14.01      10.04
N       0.65      12.17      11.46
O      -1.44      14.90       7.83
O       0.36      16.16       8.47
C      -0.38      15.14       8.51
C      -0.00      14.07       9.51
C      -0.59      12.22      10.93
