13

C      -1.81      -4.55      13.78
C      -3.61      -2.95      13.72
O      -0.64      -3.03      15.83
O      -2.48      -1.67      15.91
C      -1.79      -2.63      15.46
C      -2.41      -3.39      14.30
N      -3.56      -4.75      12.14
H      -1.99      -6.09      12.26
H      -5.08      -3.36      12.18
H      -0.90      -4.93      14.22
H      -4.10      -2.07      14.13
C      -4.14      -3.65      12.65
C      -2.42      -5.20      12.71
