13

C      12.90       8.22       6.19
C      13.13       7.41       8.45
O      14.73       6.25       5.41
O      15.45       6.07       7.58
H      11.42       9.80       5.99
H      11.75       8.36       9.85
C      14.67       6.48       6.67
C      13.54       7.38       7.11
N      11.54       9.14       7.95
H      13.18       8.19       5.15
C      11.92       9.10       6.65
C      12.12       8.29       8.83
H      13.60       6.76       9.18
