13

C      -0.84       9.79      17.47
C      -1.97       9.87      18.47
C      -3.59       8.80      19.89
C      -3.39      11.12      19.96
H      -4.09       7.92      20.29
H      -3.76      12.04      20.40
C      -2.61       8.70      18.90
C      -2.38      11.09      19.00
H      -2.33       7.74      18.49
H      -1.91      12.02      18.67
N      -3.97       9.98      20.42
O      -0.78       8.71      16.79
O      -0.06      10.79      17.43
