13

O       2.64       9.30      17.42
O       5.15       6.97      16.43
O       6.81       4.95      15.70
C       6.80       8.30      17.19
O       2.49       7.50      16.03
C       3.13       8.32      16.79
C       7.38       5.97      16.21
C       4.59       8.12      16.92
C       5.57       8.97      17.39
C       6.51       7.09      16.61
H       7.80       8.65      17.43
H       5.38       9.95      17.80
O       8.62       6.17      16.40
