13

H      -2.00      -0.28       7.34
H      -6.52      -2.13       6.81
H      -2.52      -2.55       8.33
C      -4.95      -3.82       8.28
C      -4.57      -2.50       7.65
O      -6.01      -4.36       7.80
O      -4.20      -4.24       9.21
C      -5.16      -0.49       6.47
C      -2.99      -0.73       7.26
N      -3.92       0.02       6.63
C      -5.52      -1.74       6.95
C      -3.28      -1.98       7.80
H      -5.87       0.15       5.95
