13

O       7.10       8.08       0.25
C       7.71       7.47      -0.68
C       8.88       8.20      -1.30
C      10.97       8.18      -2.48
C      10.15      10.20      -1.70
N      11.12       9.51      -2.33
H      11.79       7.67      -3.00
C       9.87       7.49      -2.01
C       9.03       9.58      -1.16
H      10.31      11.28      -1.62
H       9.76       6.42      -2.15
H       8.27      10.15      -0.63
O       7.48       6.31      -1.16
