13

H       4.72       9.70       3.31
H       5.54      11.07       5.27
C       7.66       8.29       3.69
N       6.44       8.56       3.19
C       5.70       9.54       3.75
H       9.17       8.77       5.17
C       6.16      10.29       4.82
C       8.18       9.00       4.77
O       7.30      11.83       6.88
O       9.11      10.43       6.95
C       8.00      10.84       6.50
C       7.43      10.03       5.34
H       8.19       7.47       3.22
