13

C       8.25       2.03      12.31
C       7.63       1.24      11.17
O       9.40       2.52      12.09
O       7.55       2.09      13.37
C       7.62       0.45       8.90
C       5.89      -0.19      10.31
H       4.95      -0.73      10.41
C       8.22       1.20       9.91
H       8.04       0.37       7.90
H       9.14       1.75       9.72
N       6.48      -0.24       9.10
C       6.43       0.54      11.37
H       5.93       0.59      12.33
