13

O       4.06       6.85       2.91
C      -1.43       6.40       5.05
C       2.82       6.74       2.65
O       0.59       6.57       3.66
C       0.02       6.59       4.91
O       2.25       6.65       1.51
C       1.00       6.72       5.87
C       1.94       6.70       3.84
H       0.82       6.74       6.94
O      -1.92       6.62       6.20
O      -2.07       6.01       4.01
H       3.24       6.87       5.59
C       2.24       6.78       5.18
