11

Co       2.26      -0.37      10.60
O       1.58      -2.17      10.57
C       2.97       1.35       8.28
C       1.07       0.32       7.88
O       4.11      -0.73      10.93
N       1.37       0.97      11.75
C       5.08       0.03      10.49
N       2.12       0.45       8.78
C       0.32      -2.48      10.44
C       1.92       2.04      12.31
C      -0.01       1.09      11.87
