528

H       0.99       4.27       2.82
H       4.16       4.81       5.49
H       2.81       0.93       4.61
H       3.96       6.37       2.56
H       2.22       9.95       3.96
H       0.94       6.24       5.48
H      20.81       7.66      19.80
H      18.83       6.76      23.39
H      18.11      10.43      21.47
H      19.34       5.19      19.82
H      21.27       1.97      21.69
H      21.49       5.83      23.37
H       3.81      21.39      22.78
H       0.85      20.73      19.91
H       2.46      17.48      22.03
H       1.16      22.98      22.89
H       2.51      26.46      20.96
H       3.44      22.66      19.38
H      17.30      23.88       5.40
H      20.04      23.93       2.25
H      18.07      27.46       3.33
H      20.18      22.91       5.84
H      20.46      18.87       4.72
H      18.09      21.53       2.47
H      26.12      13.01      14.45
H      27.25      15.74      11.47
H      23.36      15.87      13.08
H      28.60      14.71      14.84
H      31.72      12.35      13.28
H      28.13      12.80      11.14
H      29.13      31.34      32.32
H      29.17      29.36      28.63
H      32.67      29.50      30.95
H      26.92      29.18      31.72
H      23.92      31.76      30.28
H      27.90      32.21      28.98
H      10.62      16.20      29.57
H      10.56      13.49      32.77
H       6.96      14.74      31.06
H      11.88      13.48      29.26
H      15.73      13.20      30.90
H      12.79      15.59      32.77
H      12.00      30.51      11.98
H      12.63      32.81      15.42
H      15.85      31.99      12.84
H      10.51      33.26      12.45
H       6.99      31.13      13.32
H      10.60      30.06      15.15
H      33.73       1.18      34.54
H       1.01       2.74       1.01
H      31.18      32.32       1.12
H      30.13      31.01      34.37
H      33.56      31.36      31.94
H       0.70       0.07       4.26
H      33.71      31.72       3.90
H      33.20      31.19       2.43
H       1.77      32.92      34.35
H       1.70      32.26      32.83
H      20.85      10.24      16.24
H      19.91       8.75      17.83
H      23.36      12.69      17.95
H      24.92      13.70      16.48
H      22.00      13.81      13.44
H      19.95      11.82      20.72
H      20.58      14.01      20.09
H      21.10      14.38      18.57
H      19.35      12.49      15.39
H      19.79      13.09      13.91
H       5.27      19.75      26.69
H       3.92      20.56      24.93
H       8.13      17.05      25.86
H       9.40      16.10      27.61
H       6.23      16.79      30.30
H       4.54      16.99      22.79
H       5.58      15.17      23.84
H       6.19      15.25      25.38
H       3.87      17.82      27.89
H       4.14      17.50      29.48
H      16.38      26.69       8.84
H      17.29      25.32       7.17
H      13.45      29.37       8.00
H      12.71      30.62       9.85
H      16.49      30.18      11.68
H      16.08      28.07       4.21
H      15.28      30.18       4.86
H      15.09      30.62       6.44
H      18.11      28.81       8.87
H      18.29      29.38      10.41
H       7.32      28.43      18.22
H       8.61      30.06      17.04
H       3.92      27.88      16.88
H       2.44      26.70      18.34
H       5.58      24.10      19.42
H       7.17      28.57      13.37
H       5.68      26.72      13.36
H       5.17      25.97      14.75
H       8.04      25.55      17.31
H       7.71      24.36      18.42
H      24.50      17.63       8.00
H      25.44      16.03       9.49
H      21.22      18.75       9.36
H      19.76      19.52       7.65
H      22.97      21.46       5.74
H      24.20      18.33      12.79
H      23.08      20.40      12.42
H      22.76      20.98      10.90
H      25.46      20.53       8.12
H      25.15      21.35       6.71
H      15.00      12.50      25.61
H      14.17      13.89      27.36
H      17.71      10.00      26.84
H      19.06       9.13      25.08
H      15.73       9.12      22.50
H      14.48      10.68      30.07
H      15.18       8.54      29.28
H      15.58       8.26      27.70
H      13.36      10.24      24.91
H      13.60       9.76      23.34
H      33.68      17.58      16.82
H       0.99      19.12      18.20
H      30.87      15.23      18.47
H      29.59      14.10      16.84
H      32.93      14.04      14.27
H       0.38      16.62      21.53
H      33.29      14.47      21.22
H      32.81      13.91      19.74
H       1.43      15.29      16.61
H       1.22      14.66      15.10
H      21.19      26.18      33.45
H      19.80      25.03       0.09
H      23.98      28.45       0.14
H      25.57      29.49      33.65
H      22.71      29.72      30.57
H      20.19      28.24       2.80
H      21.28      30.21       2.13
H      21.99      30.38       0.65
H      19.99      28.47      32.46
H      20.48      29.07      31.00
H       5.43       2.79       9.40
H       4.19       3.79       7.65
H       8.42       0.33       8.56
H       9.56      33.09      10.33
H       6.07      33.20      12.68
H       5.02       0.48       5.17
H       6.09      32.42       6.07
H       6.60      32.34       7.64
H       3.93       0.61      10.15
H       4.04       0.07      11.72
H       7.38      12.47       1.24
H       8.61      13.98      34.77
H       3.93      11.56       0.04
H       2.52      10.28       1.46
H       5.85       8.03       2.76
H       7.09      12.08      31.33
H       5.67      10.20      31.56
H       5.22       9.58      33.03
H       8.25       9.64       0.69
H       7.99       8.46       1.82
H      25.45       0.25      25.40
H      26.34      32.44      26.88
H      21.93       0.89      26.09
H      20.72       1.91      24.31
H      23.96       4.50      23.57
H      24.36       0.42      30.12
H      23.03       2.36      29.74
H      22.86       3.05      28.24
H      26.06       3.25      26.17
H      25.92       4.35      24.93
H      18.88       2.30      16.41
H      20.23       3.59      17.90
H      15.76       2.02      16.98
H      14.22       1.01      15.46
H      16.67      31.43      15.21
H      18.76       1.38      21.17
H      17.18      33.48      20.80
H      16.59      33.11      19.29
H      19.23      32.60      17.38
H      18.72      31.36      16.41
H       1.10      25.75      26.47
H       2.12      24.56      24.68
H      31.61      26.20      26.39
H      30.44      27.11      28.25
H      33.28      30.21      28.54
H       0.04      26.92      21.88
H      32.43      28.65      22.65
H      32.18      28.95      24.26
H       1.47      29.16      25.81
H       1.27      30.27      27.02
H      31.27      12.17       7.70
H      30.13      13.23       9.50
H       0.62      11.08       8.24
H       2.02      10.13       6.57
H      32.66       7.73       5.22
H      31.29      10.12      12.09
H      32.61       8.33      11.26
H      33.11       8.24       9.68
H      30.27       8.90       7.59
H      30.54       7.88       6.31
H      18.06      18.43      34.27
H      18.91      20.10       0.78
H      15.53      15.95       1.24
H      14.06      14.92      34.63
H      17.04      15.02      31.66
H      18.69      17.45       4.04
H      18.14      15.18       3.66
H      17.74      14.60       2.16
H      19.63      16.21      33.75
H      19.24      15.67      32.24
C       2.58       4.72       4.11
C       1.70       3.86       3.42
C       1.78       2.45       3.57
C       2.75       1.94       4.48
C       3.62       2.78       5.21
C       3.54       4.17       4.99
C       2.44       6.12       4.00
C       3.29       6.86       3.16
C       3.21       8.28       3.11
C       2.27       8.92       3.96
C       1.42       8.19       4.82
C       1.52       6.78       4.83
C      19.90       7.03      21.59
C      20.13       7.93      20.52
C      19.50       9.20      20.46
C      18.59       9.53      21.49
C      18.35       8.65      22.57
C      19.02       7.41      22.62
C      20.43       5.72      21.55
C      19.98       4.84      20.54
C      20.28       3.46      20.58
C      21.07       2.97      21.64
C      21.54       3.83      22.66
C      21.21       5.21      22.61
C       2.32      21.24      21.32
C       3.20      20.73      22.29
C       3.26      19.35      22.60
C       2.42      18.49      21.84
C       1.55      18.95      20.83
C       1.50      20.35      20.60
C       2.24      22.63      21.12
C       1.63      23.43      22.11
C       1.70      24.84      22.05
C       2.39      25.44      20.97
C       3.04      24.66      19.98
C       2.95      23.25      20.06
C      18.66      23.72       3.82
C      17.76      24.41       4.65
C      17.52      25.79       4.51
C      18.19      26.46       3.45
C      19.10      25.80       2.58
C      19.32      24.42       2.79
C      19.06      22.40       4.12
C      19.91      22.15       5.22
C      20.40      20.85       5.45
C      20.06      19.80       4.57
C      19.21      20.02       3.45
C      18.72      21.34       3.25
C      26.86      14.29      12.95
C      25.88      13.80      13.84
C      24.59      14.36      13.90
C      24.29      15.45      13.05
C      25.26      15.97      12.15
C      26.53      15.36      12.09
C      28.17      13.78      13.01
C      28.97      14.06      14.13
C      30.29      13.56      14.27
C      30.77      12.73      13.22
C      30.01      12.46      12.06
C      28.71      13.00      11.96
C      28.95      30.31      30.50
C      29.64      30.76      31.65
C      31.02      30.49      31.85
C      31.68      29.74      30.84
C      31.03      29.33      29.65
C      29.65      29.62      29.50
C      27.59      30.63      30.35
C      26.62      29.96      31.13
C      25.26      30.36      31.12
C      24.90      31.45      30.29
C      25.84      32.13      29.49
C      27.19      31.70      29.52
C      10.78      14.88      31.19
C      10.08      15.66      30.25
C       8.66      15.66      30.19
C       7.98      14.84      31.12
C       8.65      14.08      32.10
C      10.06      14.12      32.13
C      12.16      14.61      31.03
C      12.56      13.77      29.97
C      13.87      13.26      29.92
C      14.79      13.60      30.94
C      14.43      14.48      31.99
C      13.10      14.96      32.02
C      12.13      31.68      13.71
C      12.65      31.04      12.56
C      14.02      31.14      12.20
C      14.86      31.85      13.08
C      14.39      32.43      14.29
C      13.01      32.36      14.57
C      10.73      31.72      13.86
C      10.00      32.55      12.99
C       8.62      32.35      12.75
C       7.98      31.33      13.49
C       8.67      30.51      14.41
C      10.06      30.71      14.58
C       0.98       1.56       2.78
C       0.55       0.30       3.27
C      33.79      33.15       2.44
C      33.57      33.46       1.07
C       0.06       0.93       0.60
C       0.69       1.86       1.43
C      33.04      32.54       0.11
C      31.72      32.08       0.28
C      31.09      31.32      34.20
C      31.73      31.06      32.96
C      33.07      31.50      32.82
C      33.75      32.20      33.85
C      19.84      10.14      19.44
C      20.08      11.50      19.76
C      20.59      12.42      18.81
C      20.90      11.95      17.50
C      20.60      10.61      17.16
C      20.07       9.72      18.11
C      21.72      12.69      16.60
C      23.04      12.95      17.01
C      23.97      13.53      16.14
C      23.61      13.85      14.81
C      22.28      13.60      14.40
C      21.32      13.03      15.27
C       4.09      18.86      23.66
C       4.67      17.56      23.62
C       5.39      17.01      24.71
C       5.62      17.83      25.86
C       5.11      19.14      25.88
C       4.33      19.63      24.82
C       6.36      17.37      26.99
C       7.71      17.00      26.79
C       8.47      16.46      27.84
C       7.94      16.34      29.15
C       6.63      16.83      29.36
C       5.81      17.30      28.30
C      16.79      26.55       5.50
C      16.16      27.79       5.19
C      15.73      28.69       6.19
C      15.83      28.30       7.56
C      16.31      27.01       7.86
C      16.82      26.17       6.86
C      15.46      29.14       8.66
C      14.12      29.58       8.75
C      13.68      30.29       9.87
C      14.51      30.51      10.99
C      15.86      30.07      10.88
C      16.36      29.43       9.72
C       8.00      29.46      15.09
C       7.20      28.53      14.39
C       6.43      27.55      15.07
C       6.48      27.51      16.49
C       7.30      28.42      17.19
C       8.06      29.38      16.50
C       5.63      26.68      17.26
C       4.27      27.06      17.39
C       3.41      26.37      18.25
C       3.87      25.28      19.01
C       5.22      24.87      18.85
C       6.11      25.56      18.00
C      24.91      17.04      11.28
C      24.30      18.21      11.78
C      23.74      19.18      10.91
C      23.81      18.97       9.51
C      24.49      17.83       9.01
C      25.05      16.88       9.88
C      22.98      19.67       8.59
C      21.60      19.37       8.63
C      20.74      19.81       7.63
C      21.24      20.58       6.56
C      22.61      20.93       6.53
C      23.50      20.47       7.53
C      14.25      12.40      28.87
C      14.58      11.05      29.12
C      15.04      10.19      28.09
C      15.20      10.73      26.78
C      14.85      12.08      26.53
C      14.37      12.90      27.56
C      15.89      10.04      25.74
C      17.26       9.78      25.95
C      18.06       9.27      24.91
C      17.51       9.04      23.64
C      16.13       9.29      23.43
C      15.30       9.78      24.47
C       0.80      18.03      20.02
C       0.29      16.81      20.53
C      33.51      15.83      19.71
C      33.36      16.10      18.32
C      33.80      17.35      17.81
C       0.62      18.27      18.64
C      32.71      15.22      17.40
C      31.34      14.92      17.62
C      30.58      14.28      16.63
C      31.12      13.98      15.36
C      32.51      14.22      15.18
C      33.32      14.81      16.18
C      19.86      26.52       1.61
C      20.36      27.82       1.88
C      21.14      28.55       0.95
C      21.45      27.94      34.62
C      20.96      26.64      34.34
C      20.15      25.96       0.34
C      22.36      28.53      33.69
C      23.69      28.72      34.12
C      24.64      29.32      33.28
C      24.30      29.71      31.96
C      22.97      29.47      31.53
C      21.98      28.91      32.37
C       4.48       2.23       6.22
C       5.10       0.97       6.07
C       5.76       0.31       7.13
C       5.88       0.99       8.38
C       5.36       2.29       8.52
C       4.64       2.89       7.47
C       6.52       0.41       9.51
C       7.90       0.13       9.42
C       8.59      33.35      10.48
C       7.93      33.05      11.70
C       6.56      33.39      11.81
C       5.83       0.12      10.73
C       7.95      13.17      32.93
C       7.14      12.16      32.35
C       6.43      11.24      33.15
C       6.51      11.35      34.57
C       7.32      12.36       0.22
C       8.05      13.25      34.33
C       5.74      10.55       0.52
C       4.35      10.82       0.60
C       3.53      10.07       1.45
C       4.06       9.03       2.25
C       5.44       8.77       2.17
C       6.30       9.51       1.32
C      25.43      33.20      28.64
C      24.60       0.40      29.13
C      24.05       1.39      28.27
C      24.37       1.33      26.88
C      25.25       0.33      26.40
C      25.78      33.20      27.27
C      23.68       2.09      25.91
C      22.37       1.67      25.59
C      21.66       2.26      24.53
C      22.24       3.30      23.78
C      23.53       3.76      24.12
C      24.27       3.16      25.17
C      19.64       2.58      19.67
C      18.82       1.54      20.15
C      18.00       0.77      19.29
C      18.02       1.06      17.90
C      18.87       2.07      17.40
C      19.66       2.83      18.28
C      17.16       0.41      16.98
C      15.97       1.09      16.61
C      15.06       0.49      15.73
C      15.31      33.04      15.19
C      16.49      32.37      15.57
C      17.43      32.95      16.46
C       1.17      25.63      23.11
C       0.28      26.70      22.85
C      33.49      27.42      23.90
C      33.80      27.07      25.24
C       0.88      26.02      25.50
C       1.47      25.32      24.45
C      33.15      27.66      26.35
C      31.98      27.05      26.83
C      31.29      27.58      27.93
C      31.76      28.74      28.58
C      32.94      29.35      28.10
C      33.66      28.83      26.99
C      30.59      11.76      10.97
C      31.28      10.54      11.16
C      31.97       9.89      10.11
C      31.96      10.50       8.82
C      31.27      11.71       8.61
C      30.58      12.33       9.67
C      32.71       9.97       7.73
C       0.22      10.39       7.60
C       1.04       9.84       6.60
C       0.55       8.85       5.73
C      33.03       8.45       5.86
C      32.17       9.00       6.85
C      18.86      18.95       2.57
C      18.61      17.64       3.04
C      18.17      16.60       2.19
C      17.95      16.89       0.81
C      18.24      18.18       0.33
C      18.72      19.18       1.18
C      17.22      16.02      34.86
C      15.89      15.70       0.31
C      15.01      15.11      34.32
C      15.39      14.88      32.98
C      16.74      15.15      32.62
C      17.67      15.70      33.54
N      33.52      31.92       2.97
N       1.23      32.52      33.64
N      20.80      13.71      19.20
N      20.05      12.83      14.82
N       5.78      15.71      24.63
N       4.51      17.59      28.58
N      15.30      29.93       5.80
N      17.69      29.14       9.68
N       5.68      26.68      14.34
N       7.40      25.13      17.91
N      23.12      20.27      11.46
N      24.82      20.80       7.44
N      15.31       8.89      28.39
N      13.98       9.97      24.21
N      33.14      14.65      20.27
N       0.82      14.97      15.93
N      21.53      29.81       1.28
N      20.71      28.78      31.90
N       6.22      32.87       6.92
N       4.49       0.31      10.89
N       5.70      10.27      32.53
N       7.62       9.19       1.28
N      23.23       2.34      28.79
N      25.53       3.61      25.44
N      17.19      33.65      19.84
N      18.55      32.24      16.78
N      32.62      28.42      23.58
N       0.95      29.47      26.57
N      32.62       8.73      10.37
N      30.89       8.56       6.93
N      17.97      15.36       2.72
N      18.95      15.91      33.13
