136

Nd       8.91       6.72       0.41
Nd       6.93       0.35      10.78
Nd       4.24       7.42      20.33
Nd       6.23      13.79       9.96
H       4.61       8.69       2.75
H       5.45      10.14       4.56
H       4.98      11.69       6.48
H      10.20      12.24       7.84
H       9.36      10.79       6.00
H       9.81       9.39       4.00
H       6.91       0.02      19.24
H       6.96       2.50      19.55
H       1.32       2.20       1.10
H       5.87      12.53      13.11
H       5.02      11.08      14.93
H       5.48       9.52      16.84
H       9.53       8.97      18.21
H      10.37      10.42      16.37
H       9.92      11.83      14.37
H       8.93       7.04       8.88
H       8.88       4.56       9.18
H       5.25       4.87      11.46
H       8.55       5.46      17.99
H       7.70       4.00      16.18
H       8.17       2.44      14.27
H       2.95       1.89      12.90
H       3.79       3.35      14.73
H       3.34       4.75      16.73
H       6.25      14.12       1.49
H       6.19      11.64       1.19
H      11.83      11.94      19.64
H       7.30       1.61       7.62
H       8.14       3.07       5.80
H       7.67       4.62       3.89
H       3.63       5.18       2.53
H       2.78       3.72       4.36
H       3.24       2.31       6.36
H       4.22       7.10      11.86
H       4.27       9.58      11.56
H       7.90       9.28       9.27
C       2.51       8.96       3.27
C       3.91       9.16       3.44
C       4.38       9.97       4.44
C       3.48      10.61       5.34
C       3.92      11.48       6.37
C      12.28      12.05       7.25
C      10.89      11.79       7.13
C      10.43      10.98       6.12
C      11.33      10.38       5.20
C      10.88       9.56       4.14
C      11.24       8.14       2.16
C      12.79      12.94       8.33
C       7.71       0.50      19.81
C       7.73       1.87      19.97
C       8.78       2.47      20.72
C       0.53       1.71       0.53
C       0.53       0.31       0.37
C       8.80       3.96       0.15
C       7.96      12.25      13.64
C       6.56      12.06      13.80
C       6.09      11.25      14.81
C       6.99      10.61      15.71
C       6.55       9.74      16.73
C       7.45       9.16      17.61
C       8.84       9.43      17.50
C       9.30      10.23      16.49
C       8.40      10.84      15.57
C       8.85      11.66      14.51
C       8.50      13.07      12.52
C       6.94       8.27      18.69
C       8.13       6.56       9.44
C       8.10       5.20       9.61
C       7.06       4.59      10.35
C       6.05       5.36      10.90
C       6.04       6.76      10.74
C       7.04       3.11      10.52
C      10.64       5.18      17.47
C       9.24       4.98      17.30
C       8.78       4.17      16.29
C       9.68       3.53      15.40
C       9.23       2.66      14.38
C       0.87       2.09      13.50
C       2.26       2.35      13.61
C       2.73       3.16      14.62
C       1.82       3.76      15.54
C       2.27       4.58      16.59
C       1.92       6.00      18.58
C       0.36       1.20      12.42
C       5.44      13.64       0.93
C       5.42      12.27       0.76
C       4.37      11.67       0.02
C      12.63      12.43      20.20
C      12.62      13.83      20.36
C       4.35      10.18      20.59
C       5.20       1.89       7.09
C       6.60       2.08       6.93
C       7.07       2.90       5.92
C       6.17       3.54       5.03
C       6.61       4.40       4.00
C       5.70       4.98       3.12
C       4.31       4.72       3.24
C       3.85       3.91       4.25
C       4.75       3.30       5.17
C       4.31       2.48       6.22
C       4.67       1.06       8.21
C       6.21       5.87       2.04
C       5.02       7.58      11.30
C       5.05       8.95      11.13
C       6.10       9.56      10.39
C       7.10       8.79       9.84
C       7.11       7.38      10.00
C       6.12      11.03      10.22
O       9.97       8.09       1.99
O       2.78       7.50       1.40
O       4.70      13.41       8.22
O      12.04      13.18       9.33
O       9.73       4.51       0.86
O       7.90       4.66      20.31
O       9.77      13.11      12.36
O       7.70      13.72      11.76
O       5.76       7.80      18.58
O       7.69       8.03      19.70
O       6.11       2.56      11.22
O       7.94       2.40       9.95
O       3.18       6.04      18.74
O      10.38       6.64      19.34
O       8.45       0.72      12.53
O       1.11       0.95      11.41
O       3.43       9.63      19.88
O       5.25       9.48       0.42
O       3.40       1.01       8.37
O       5.47       0.42       8.97
O       7.39       6.34       2.16
O       5.46       6.11       1.04
O       7.04      11.58       9.51
O       5.22      11.75      10.80
