15

H      -1.87      10.86       5.05
H      -4.56      10.50       3.57
H      -4.85       8.39       4.42
N      -3.09       7.40       6.93
N      -4.20       8.32       5.25
O      -4.20      12.75       2.50
O      -2.11      12.75       3.34
H      -1.51       8.85       7.05
H      -4.91       6.50       6.16
C      -4.16       7.29       6.11
C      -2.42       8.54       6.55
C      -3.10       9.14       5.49
C      -2.81      10.36       4.79
C      -3.61      10.94       3.86
C      -3.25      12.22       3.21
