15

C      11.58       1.23       6.99
C       9.84      -0.02       6.56
H      12.33       2.02       6.95
H       8.93      -0.33       6.05
C      10.51      -0.62       7.61
C      10.23      -1.84       8.32
H       9.29      -2.33       8.06
H      12.27       0.13       8.68
C      11.02      -2.42       9.25
H      11.98      -1.98       9.54
C      10.67      -3.70       9.90
N      10.51       1.13       6.18
N      11.61       0.20       7.86
O      11.62      -4.23      10.61
O       9.53      -4.23       9.76
