15

H      -6.22       3.37      10.35
O      -9.78       5.09      13.27
O      -8.64       7.03      13.35
N      -3.98       5.35       9.22
N      -5.65       4.21      10.10
C      -4.58       4.16       9.29
C      -4.70       6.20      10.03
C      -5.76       5.51      10.60
C      -6.78       5.97      11.49
C      -7.82       5.26      11.96
C      -8.78       5.87      12.91
H      -4.24       3.28       8.77
H      -4.43       7.24      10.16
H      -6.70       7.01      11.80
H      -7.98       4.21      11.70
