744

Cu      -0.11      20.36      13.17
Cu      -0.11      22.36      11.42
Cu      30.99      12.69      21.64
Cu      -0.04      10.79      23.45
Cu      -0.10      12.74      13.24
Cu      30.98      10.77      11.48
Cu      30.96      20.35      21.65
Cu      -0.10      22.36      23.39
Cu      18.92      33.04      13.02
Cu      21.22       0.18      11.44
Cu      11.70      33.05      21.83
Cu       9.67      32.91      23.53
Cu      18.88      33.01      21.75
Cu      21.17       0.09      23.38
Cu      12.03       0.06      13.10
Cu       9.69      32.94      11.57
Cu      19.12      20.61       0.04
Cu      21.12      22.36       0.09
Cu      11.72      12.39      34.81
Cu       9.71      10.65      34.73
Cu      11.72      20.77       0.02
Cu       9.60      22.50      34.75
Cu      19.26      12.29       0.02
Cu      21.24      10.53       0.02
H      17.93       6.19      28.20
H      12.98       6.43      28.19
H      17.82      26.70       6.59
H      12.92      27.30       6.23
H      17.97      26.56      28.15
H      13.03      26.96      28.34
H      12.96       6.47       6.71
H      17.88       5.96       6.33
H       6.20      19.04      27.98
H       6.28      14.08      27.82
H      24.91      14.04       6.85
H      24.61      18.99       6.86
H       5.96      14.04       6.58
H       6.01      19.00       6.67
H      24.88      14.08      28.19
H      24.94      19.05      28.24
H       6.42       6.65      15.02
H       5.72       6.25      19.91
H      24.67      26.54      19.86
H      24.81      26.52      14.90
H      24.44       6.91      19.96
H      24.50       6.93      15.01
H       6.30      26.11      19.90
H       6.65      26.09      14.96
C       1.54      20.16      10.91
C      29.41      22.58      13.65
C      29.26      20.24      11.03
C       1.71      22.46      13.56
C       1.64      12.96      23.78
C      29.28      10.55      21.34
C      29.37      12.92      23.91
C       1.56      10.55      21.19
C      29.30      12.96      11.10
C       1.64      10.57      13.59
C       1.55      12.90      10.97
C      29.31      10.60      13.72
C      29.33      20.22      23.91
C       1.57      22.45      21.14
C       1.60      20.18      23.80
C      29.27      22.57      21.25
C      21.16       1.89      13.62
C      18.97      31.30      10.89
C      21.15      31.43      13.59
C      19.01       1.73      10.80
C      11.92      31.35      24.05
C       9.64       1.60      21.34
C      11.90       1.78      24.00
C       9.71      31.15      21.34
C      21.10      31.41      21.16
C      18.95       1.68      23.97
C      21.10       1.86      21.21
C      18.95      31.24      23.92
C      11.92       1.84      11.00
C       9.83      31.19      13.72
C      11.89      31.42      10.85
C       9.81       1.65      13.75
C      21.22      20.17       1.83
C      18.93      22.84      33.13
C      21.25      20.24      33.18
C      18.92      22.81       1.78
C      11.93      10.23      33.06
C       9.59      12.79       1.65
C      11.86      10.13       1.71
C       9.63      12.83      32.98
C       9.55      20.28      33.06
C      11.77      23.03       1.67
C       9.55      20.31       1.72
C      11.79      22.94      33.05
C      21.35      12.80      33.15
C      19.06      10.05       1.72
C      21.37      12.68       1.81
C      19.06      10.19      33.05
C      16.12       5.42      27.33
C      14.71       5.50      27.30
C      14.06       6.38      28.19
C      14.78       7.16      29.10
C      16.20       7.11      29.09
C      16.85       6.25      28.20
C      16.11      27.73       7.39
C      14.70      27.90       7.29
C      13.99      27.16       6.33
C      14.64      26.26       5.47
C      16.04      26.10       5.56
C      16.75      26.83       6.52
C      16.23      27.53      27.30
C      14.82      27.66      27.38
C      14.11      26.87      28.29
C      14.76      26.01      29.17
C      16.17      25.91      29.13
C      16.89      26.64      28.18
C      14.73       7.09       5.67
C      16.14       6.97       5.57
C      16.81       6.08       6.43
C      16.11       5.31       7.39
C      14.70       5.48       7.50
C      14.04       6.37       6.64
C       5.45      17.28      26.98
C       5.47      15.87      26.94
C       6.30      15.16      27.82
C       7.06      15.84      28.79
C       7.02      17.25      28.84
C       6.24      17.95      27.92
C      24.01      15.77       5.92
C      23.93      17.18       5.93
C      24.66      17.91       6.87
C      25.51      17.27       7.78
C      25.60      15.86       7.78
C      24.83      15.12       6.86
C       6.77      15.82       5.69
C       6.79      17.23       5.73
C       6.02      17.92       6.67
C       5.18      17.22       7.56
C       5.18      15.80       7.54
C       5.97      15.12       6.61
C      24.10      15.86      29.12
C      24.11      17.27      29.13
C      24.91      17.96      28.21
C      25.72      17.27      27.30
C      25.71      15.86      27.28
C      24.88      15.17      28.18
C       5.36       7.45      16.72
C       5.16       7.34      18.13
C       5.88       6.37      18.84
C       6.78       5.51      18.21
C       6.98       5.62      16.82
C       6.29       6.59      16.10
C      23.91      27.43      18.06
C      23.93      27.41      16.65
C      24.76      26.50      15.99
C      25.60      25.63      16.70
C      25.57      25.64      18.12
C      24.70      26.52      18.78
C      23.61       6.06      18.17
C      23.63       6.06      16.76
C      24.47       6.95      16.09
C      25.36       7.79      16.79
C      25.32       7.79      18.21
C      24.42       6.95      18.88
C       5.57      25.23      18.08
C       5.66      25.23      16.67
C       6.59      26.07      16.04
C       7.36      26.98      16.78
C       7.26      26.98      18.19
C       6.40      26.08      18.82
C      27.07      23.06      14.34
C      28.44      23.31      14.47
C      28.88      24.33      15.33
C      27.96      25.08      16.06
C      26.58      24.82      15.94
C      26.14      23.81      15.07
C      26.95      10.35      20.46
C      28.25       9.81      20.60
C      28.57       8.60      19.96
C      27.62       7.96      19.16
C      26.33       8.50      19.02
C      25.99       9.68      19.70
C       3.51      10.44      15.28
C       2.68       9.81      14.33
C       2.82       8.43      14.11
C       3.73       7.68      14.86
C       4.52       8.30      15.85
C       4.43       9.69      16.03
C       3.93      22.77      20.44
C       2.58      23.12      20.32
C       2.20      24.14      19.43
C       3.17      24.81      18.68
C       4.53      24.47      18.81
C       4.90      23.45      19.70
C      17.41      29.36      10.55
C      18.37      30.26      10.03
C      18.66      30.21       8.65
C      17.96      29.34       7.81
C      16.96      28.50       8.32
C      16.72      28.48       9.71
C      12.36      29.05      24.86
C      12.66      30.41      24.89
C      13.66      30.89      25.76
C      14.34      30.00      26.59
C      14.07      28.62      26.54
C      13.06      28.15      25.67
C      18.53       4.00      24.76
C      18.24       2.63      24.83
C      17.29       2.17      25.75
C      16.62       3.07      26.59
C      16.87       4.45      26.49
C      17.84       4.91      25.58
C      12.18       2.96       8.78
C      12.50       2.90      10.15
C      13.46       3.80      10.67
C      14.13       4.69       9.82
C      13.87       4.69       8.44
C      12.86       3.85       7.93
C      21.28      19.18       4.12
C      21.89      19.38       2.87
C      23.17      18.84       2.63
C      23.82      18.10       3.62
C      23.21      17.91       4.87
C      21.94      18.47       5.12
C       9.59      14.31       3.65
C       8.87      13.58       2.68
C       7.47      13.59       2.71
C       6.79      14.33       3.68
C       7.50      15.06       4.65
C       8.90      15.03       4.64
C       9.69      18.84      31.01
C       8.91      19.47      32.00
C       7.51      19.35      31.95
C       6.90      18.61      30.93
C       7.68      18.00      29.93
C       9.08      18.13      29.98
C      23.33      14.10      32.37
C      22.05      13.59      32.12
C      21.44      13.82      30.88
C      22.11      14.54      29.89
C      23.38      15.08      30.15
C      23.99      14.86      31.40
C       3.86      19.56      10.24
C       2.48      19.42      10.06
C       1.98      18.59       9.05
C       2.86      17.88       8.23
C       4.25      17.99       8.41
C       4.75      18.85       9.42
C       2.23      14.35      25.74
C       2.62      13.73      24.55
C       3.96      13.80      24.14
C       4.91      14.47      24.93
C       4.50      15.11      26.11
C       3.16      15.05      26.51
C      28.91      18.65      25.78
C      28.40      19.50      24.79
C      27.01      19.64      24.63
C      26.14      18.92      25.46
C      26.64      18.05      26.44
C      28.04      17.94      26.61
C      28.82      14.62       9.33
C      28.34      13.72      10.28
C      26.97      13.50      10.42
C      26.07      14.21       9.60
C      26.55      15.12       8.65
C      27.93      15.31       8.51
C      12.18      23.78       4.01
C      12.44      23.90       2.64
C      13.37      24.86       2.19
C      14.05      25.66       3.11
C      13.83      25.50       4.49
C      12.87      24.58       4.93
C      17.49       9.92       3.59
C      18.37       9.29       2.69
C      18.55       7.90       2.78
C      17.81       7.14       3.70
C      16.93       7.77       4.59
C      16.82       9.17       4.57
C      12.41       9.66      30.68
C      12.65       9.45      32.05
C      13.57       8.48      32.44
C      14.24       7.70      31.49
C      14.03       7.94      30.12
C      13.10       8.92      29.72
C      18.24      23.19      30.77
C      18.26      23.63      32.10
C      17.62      24.83      32.45
C      16.95      25.58      31.48
C      16.92      25.13      30.14
C      17.59      23.95      29.79
C       9.98      28.97      14.89
C       9.25      30.13      14.57
C       7.92      30.25      15.01
C       7.33      29.23      15.76
C       8.04      28.07      16.05
C       9.37      27.94      15.61
C      21.09      29.41      19.65
C      21.81      30.41      20.34
C      23.21      30.43      20.25
C      23.89      29.47      19.50
C      23.17      28.47      18.82
C      21.77      28.44      18.91
C      20.98       3.97      15.02
C      21.76       2.94      14.46
C      23.15       2.94      14.69
C      23.75       3.95      15.44
C      22.97       4.99      15.98
C      21.58       5.00      15.76
C       7.50       2.56      20.46
C       8.91       2.60      20.54
C       9.61       3.61      19.86
C       8.91       4.57      19.11
C       7.51       4.51      19.01
C       6.81       3.50      19.69
C       2.04       9.29      19.18
C       2.45       9.83      20.41
C       3.74       9.55      20.89
C       4.64       8.81      20.10
C       4.21       8.22      18.89
C       2.88       8.42      18.48
C       2.98      24.49      14.08
C       2.73      23.11      14.29
C       3.50      22.43      15.26
C       4.49      23.09      15.99
C       4.69      24.47      15.82
C       3.94      25.16      14.85
C      27.52      22.68      19.52
C      28.33      23.30      20.50
C      28.19      24.70      20.69
C      27.31      25.44      19.91
C      26.50      24.82      18.94
C      26.60      23.43      18.78
C      27.54      10.60      15.44
C      28.35       9.92      14.50
C      28.16       8.52      14.34
C      27.21       7.84      15.11
C      26.39       8.53      16.02
C      26.55       9.92      16.16
C      12.17       2.93      26.15
C      12.50       2.79      24.78
C      13.48       3.65      24.23
C      14.13       4.59      25.03
C      13.88       4.65      26.41
C      12.88       3.83      26.96
C      18.82       3.88       9.67
C      18.32       2.60       9.96
C      17.12       2.19       9.34
C      16.47       3.03       8.43
C      16.89       4.36       8.25
C      18.09       4.77       8.87
C      12.04      29.29       9.65
C      12.56      30.56       9.96
C      13.74      30.99       9.33
C      14.37      30.17       8.38
C      13.93      28.85       8.18
C      12.75      28.42       8.82
C      18.76      30.07      26.06
C      18.38      30.23      24.71
C      17.38      29.37      24.19
C      16.75      28.42      25.01
C      17.05      28.36      26.38
C      18.08      29.17      26.89
C       9.70      13.96      30.75
C       8.98      13.61      31.91
C       7.63      13.98      32.03
C       7.01      14.71      31.01
C       7.72      15.05      29.85
C       9.06      14.65      29.71
C      23.38      19.45      32.13
C      21.98      19.47      32.15
C      21.27      18.76      31.15
C      21.97      18.06      30.16
C      23.37      18.04      30.16
C      24.07      18.74      31.15
C      21.29      14.18       3.82
C      22.04      13.45       2.88
C      23.45      13.47       2.97
C      24.08      14.22       3.96
C      23.33      14.95       4.89
C      21.93      14.91       4.82
C       9.46      19.29       4.00
C       8.86      19.52       2.75
C       7.58      19.01       2.49
C       6.92      18.25       3.45
C       7.51      18.02       4.70
C       8.78      18.56       4.98
C      28.42      13.48      26.15
C      28.39      13.64      24.76
C      27.44      14.51      24.19
C      26.55      15.21      25.00
C      26.60      15.07      26.40
C      27.54      14.19      26.97
C      27.31      18.67      10.82
C      28.23      19.55      10.22
C      28.20      19.73       8.83
C      27.29      19.01       8.04
C      26.39      18.11       8.64
C      26.39      17.97      10.04
C       2.45      13.46       8.71
C       2.52      13.61      10.11
C       3.50      14.45      10.66
C       4.39      15.14       9.83
C       4.29      15.02       8.43
C       3.33      14.16       7.88
C       2.57      19.54      26.00
C       2.61      19.46      24.60
C       3.61      18.69      23.98
C       4.56      18.02      24.75
C       4.50      18.06      26.15
C       3.51      18.84      26.77
C      18.58       8.03      31.89
C      18.39       9.42      31.99
C      17.53      10.06      31.07
C      16.87       9.32      30.09
C      17.01       7.92      30.03
C      17.90       7.29      30.92
C      13.29      23.07      31.06
C      12.50      23.73      32.03
C      12.43      25.13      32.02
C      13.16      25.87      31.09
C      13.96      25.22      30.13
C      14.00      23.82      30.11
C      17.25      23.06       3.64
C      18.20      23.64       2.77
C      18.45      25.02       2.86
C      17.76      25.81       3.78
C      16.80      25.23       4.63
C      16.56      23.85       4.56
C      13.00       8.04       2.45
C      12.52       9.33       2.75
C      12.70       9.85       4.04
C      13.38       9.10       5.01
C      13.95       7.86       4.68
C      13.74       7.33       3.40
C      23.08       2.84      20.06
C      21.71       2.92      20.40
C      20.96       4.04      19.99
C      21.58       5.07      19.27
C      22.93       4.98      18.93
C      23.68       3.86      19.32
C       7.83       2.38      15.07
C       9.12       2.65      14.58
C       9.72       3.89      14.85
C       9.02       4.87      15.56
C       7.74       4.59      16.07
C       7.15       3.34      15.82
C       9.89      29.12      19.89
C       9.09      30.08      20.54
C       7.69      30.01      20.41
C       7.11      29.00      19.64
C       7.90      28.04      19.00
C       9.30      28.09      19.14
C      21.23      29.18      14.67
C      21.85      30.41      14.39
C      23.16      30.64      14.84
C      23.83      29.66      15.58
C      23.21      28.44      15.86
C      21.92      28.19      15.39
O       1.11      19.62      11.98
O      29.84      21.45      14.05
O      29.69      19.71      12.10
O       1.28      21.32      13.94
O       1.22      23.02      12.53
O      29.74      21.35      10.62
O      29.81      23.09      12.56
O       1.15      21.31      10.55
O       1.25      13.38      22.64
O      29.57      11.73      20.98
O      29.76      13.43      22.81
O       0.88      11.50      20.68
O       1.40      10.24      22.41
O      29.83      11.80      24.29
O      29.88      10.00      22.31
O       1.16      11.91      24.29
O      29.80      13.50      12.14
O       1.20      11.67      14.04
O       1.20      13.40      12.09
O      29.74      11.74      14.07
O      29.77      10.05      12.67
O       1.05      11.80      10.58
O       1.17      10.08      12.51
O      29.65      11.80      10.72
O      29.72      19.67      22.84
O       1.07      21.35      20.75
O       1.14      19.66      22.73
O      29.63      21.41      20.88
O      29.79      23.10      22.28
O       1.17      21.30      24.21
O       1.20      22.99      22.22
O      29.76      21.36      24.26
O      20.00       1.44      13.88
O      18.38      31.64      11.96
O      19.96      31.75      13.87
O      18.37       1.07      11.68
O      20.26       1.58      10.67
O      21.76      31.98      12.61
O      20.05      31.88      10.54
O      21.82       1.44      12.64
O      12.47      31.86      23.03
O      10.79       1.21      20.96
O      12.45       1.42      22.91
O      10.83      31.64      21.00
O       9.09      31.59      22.36
O      10.84       1.21      24.39
O       9.13       1.15      22.41
O      10.73      31.66      24.38
O      19.95      31.81      20.81
O      18.36       1.18      22.97
O      19.96       1.40      20.91
O      18.37      31.61      22.85
O      20.03      31.80      24.28
O      21.74       1.40      22.21
O      20.14       1.36      24.26
O      21.65      31.84      22.22
O      12.54       1.48      12.05
O      11.00      31.63      13.95
O      12.55      32.07      11.72
O      11.02       1.33      14.01
O       9.19       1.12      12.78
O      10.63      31.56      10.76
O       9.13      31.66      12.77
O      10.84       1.26      10.67
O      20.09      19.79       1.39
O      18.39      21.77      33.54
O      20.12      19.83      33.60
O      18.39      21.75       1.32
O      20.07      23.19       1.37
O      21.77      21.31      33.63
O      20.03      23.25      33.62
O      21.78      21.21       1.38
O      12.48      11.26      33.56
O      10.72      13.20       1.23
O      12.39      11.21       1.33
O      10.76      13.20      33.44
O       9.05      11.80      33.44
O      10.77       9.72       1.20
O       9.08      11.72       1.20
O      10.77       9.86      33.43
O      10.66      19.92      33.55
O      12.36      21.98       1.27
O      10.71      19.96       1.35
O      12.33      21.89      33.51
O      10.66      23.34      33.48
O       8.98      21.32       1.22
O      10.62      23.36       1.23
O       8.98      21.34      33.46
O      20.20      13.16      33.54
O      18.58      11.17       1.34
O      20.28      13.11       1.33
O      18.50      11.22      33.54
O      20.19       9.80      33.48
O      21.89      11.61       1.38
O      20.15       9.63       1.23
O      21.91      11.76      33.62
F      24.82      23.56      14.93
F      26.63      22.09      13.50
F      28.41      26.08      16.87
F      30.21      24.60      15.44
F      24.74      10.19      19.60
F      26.62      11.51      21.08
F      27.95       6.80      18.54
F      29.81       8.07      20.09
F       5.22      10.32      16.94
F       3.43      11.78      15.50
F       3.78       6.34      14.68
F       2.03       7.77      13.22
F       6.21      23.11      19.85
F       4.31      21.78      21.30
F       2.80      25.82      17.86
F       0.90      24.49      19.31
F      15.80      27.64      10.23
F      17.14      29.33      11.88
F      18.21      29.39       6.47
F      19.57      31.06       8.10
F      12.77      26.83      25.59
F      11.39      28.58      24.03
F      15.26      30.48      27.47
F      13.95      32.21      25.82
F      18.11       6.23      25.45
F      19.45       4.46      23.87
F      15.74       2.59      27.51
F      17.02       0.84      25.85
F      12.60       3.81       6.60
F      11.28       2.11       8.23
F      15.05       5.54      10.34
F      13.76       3.81      11.99
F      21.36      18.32       6.34
F      20.05      19.70       4.37
F      25.05      17.58       3.37
F      23.77      19.02       1.43
F       9.61      15.67       5.60
F      10.94      14.29       3.67
F       5.43      14.35       3.68
F       6.75      12.92       1.78
F       9.85      17.60      28.99
F      11.04      18.97      31.02
F       5.55      18.50      30.90
F       6.73      19.93      32.90
F      25.22      15.36      31.66
F      23.93      13.89      33.57
F      21.53      14.72      28.67
F      20.21      13.32      30.61
F       6.08      18.97       9.61
F       4.35      20.37      11.21
F       2.36      17.10       7.23
F       0.64      18.46       8.86
F       2.76      15.65      27.66
F       0.93      14.29      26.15
F       6.20      14.51      24.53
F       4.36      13.19      22.99
F      28.55      17.14      27.58
F      30.25      18.52      25.95
F      24.80      19.05      25.28
F      26.51      20.46      23.67
F      28.42      16.14       7.55
F      30.16      14.82       9.18
F      24.73      14.00       9.75
F      26.49      12.62      11.33
F      12.64      24.41       6.26
F      11.28      22.87       4.45
F      14.93      26.59       2.65
F      13.62      25.00       0.86
F      16.12       9.82       5.52
F      17.33      11.27       3.60
F      17.94       5.79       3.70
F      19.38       7.24       1.92
F      12.88       9.17      28.40
F      11.51      10.60      30.28
F      15.06       6.71      31.91
F      13.83       8.27      33.76
F      17.58      23.52      28.50
F      18.86      22.04      30.42
F      16.33      26.73      31.83
F      17.64      25.27      33.73
F      10.06      26.79      15.84
F      11.25      28.82      14.45
F       6.04      29.37      16.17
F       7.19      31.36      14.71
F      21.07      27.44      18.31
F      19.74      29.35      19.73
F      25.24      29.51      19.42
F      23.93      31.39      20.89
F      20.82       6.02      16.23
F      19.64       4.01      14.80
F      25.09       3.92      15.65
F      23.93       1.95      14.19
F       5.46       3.42      19.61
F       6.80       1.58      21.09
F       9.60       5.57      18.52
F      10.96       3.70      19.94
F       2.36       7.72      17.44
F       0.78       9.50      18.73
F       5.92       8.68      20.53
F       4.17      10.07      22.07
F       4.08      26.50      14.69
F       2.27      25.22      13.19
F       5.26      22.39      16.85
F       3.33      21.09      15.47
F      25.77      22.78      17.91
F      27.58      21.34      19.31
F      27.27      26.79      20.07
F      28.95      25.37      21.59
F      25.71      10.64      16.95
F      27.66      11.95      15.60
F      27.11       6.50      14.98
F      28.93       7.80      13.49
F      12.62       3.85      28.29
F      11.25       2.13      26.74
F      15.02       5.44      24.46
F      13.79       3.61      22.91
F      18.53       6.05       8.75
F      19.97       4.31      10.25
F      15.45       2.51       7.70
F      16.65       0.93       9.53
F      12.30      27.15       8.67
F      10.90      28.85      10.24
F      15.38      30.70       7.64
F      14.22      32.24       9.54
F      18.39      29.14      28.21
F      19.71      30.86      26.63
F      15.84      27.58      24.46
F      17.02      29.42      22.88
F       9.75      14.92      28.58
F      10.99      13.58      30.61
F       5.72      15.09      31.16
F       6.93      13.67      33.15
F      25.43      18.72      31.17
F      24.09      20.11      33.08
F      21.27      17.44      29.18
F      19.91      18.78      31.12
F      21.18      15.56       5.75
F      19.93      14.16       3.78
F      25.44      14.25       4.00
F      24.21      12.79       2.07
F       9.35      18.39       6.20
F      10.69      19.80       4.27
F       5.69      17.74       3.18
F       6.98      19.22       1.28
F      27.63      14.05      28.31
F      29.34      12.66      26.74
F      25.61      16.01      24.43
F      27.37      14.66      22.84
F      25.49      17.14      10.65
F      27.29      18.50      12.17
F      27.33      19.15       6.69
F      29.08      20.54       8.20
F       3.21      14.03       6.53
F       1.51      12.67       8.14
F       5.34      15.93      10.39
F       3.61      14.60      12.01
F       3.41      18.88      28.13
F       1.61      20.25      26.64
F       5.55      17.33      24.12
F       3.69      18.63      22.62
F      18.04       5.94      30.89
F      19.38       7.37      32.76
F      16.07       9.97      29.20
F      17.36      11.40      31.11
F      14.70      23.16      29.15
F      13.34      21.72      31.01
F      13.12      27.23      31.14
F      11.70      25.79      32.96
F      15.68      23.26       5.41
F      17.00      21.72       3.60
F      17.99      27.15       3.81
F      19.34      25.62       2.03
F      14.24       6.11       3.07
F      12.78       7.50       1.23
F      13.50       9.60       6.27
F      12.21      11.07       4.36
F      24.99       3.75      18.99
F      23.82       1.76      20.43
F      20.86       6.18      18.95
F      19.66       4.15      20.33
F       5.91       3.06      16.29
F       7.23       1.19      14.83
F       9.58       6.09      15.76
F      10.95       4.18      14.36
F      10.08      27.14      18.58
F      11.24      29.14      20.02
F       5.76      28.97      19.51
F       6.89      30.93      20.99
F      21.32      26.99      15.61
F      19.97      28.93      14.22
F      25.09      29.91      16.03
F      23.79      31.82      14.58
