96

C      12.99       2.85      24.78
C      12.14       3.70      25.65
C      12.05       3.44      27.02
C      11.20       4.18      27.85
C      10.45       5.22      27.26
C      10.22       6.92      28.91
C      10.57       8.22      28.19
C      11.26       9.22      29.12
C      10.49       5.47      25.87
C      11.36       4.72      25.08
C       9.50       6.43      25.23
C       8.20       5.70      24.92
C       8.20       4.62      24.02
C       7.05       3.86      23.81
C       5.90       4.14      24.54
C       5.85       5.21      25.44
C       7.00       6.02      25.58
C       6.66       8.35      25.72
C       6.62       9.48      26.74
C       6.32      10.83      26.09
C       4.62       5.42      26.31
C       4.45       4.25      27.26
C       3.64       3.17      26.93
C       3.58       2.04      27.76
C       2.72       0.88      27.42
C       4.35       2.00      28.94
C       5.17       3.07      29.29
C       5.21       4.19      28.45
C       5.46       6.22      29.62
C       6.54       7.20      30.05
C       5.98       8.28      30.98
C       6.09       2.97      30.49
C       7.46       2.46      30.04
C       7.55       1.17      29.50
C       8.75       0.70      28.96
C       9.85       1.55      28.91
C       9.80       2.85      29.44
C       8.60       3.28      30.05
C       8.51       4.58      32.06
C       9.81       5.15      32.62
C       9.80       5.24      34.15
C      11.01       3.76      29.29
H      12.64       2.63      27.45
H      11.12       6.49      29.36
H       9.49       7.09      29.72
H       9.65       8.65      27.77
H      11.22       7.98      27.33
H      11.51      10.15      28.59
H      12.20       8.81      29.52
H      10.63       9.49      29.98
H      11.43       4.90      24.01
H       9.29       7.27      25.90
H       9.94       6.83      24.31
H       9.13       4.36      23.51
H       7.07       3.03      23.11
H       5.02       3.50      24.43
H       5.69       8.27      25.19
H       7.43       8.54      24.96
H       7.59       9.52      27.26
H       5.88       9.24      27.51
H       7.06      11.08      25.32
H       6.31      11.64      26.83
H       5.33      10.82      25.60
H       4.74       6.36      26.86
H       3.73       5.51      25.67
H       3.04       3.19      26.02
H       4.30       1.11      29.56
H       5.00       5.73      30.49
H       4.65       6.74      29.08
H       7.34       6.63      30.54
H       6.99       7.64      29.15
H       5.16       8.84      30.50
H       6.75       9.01      31.26
H       5.58       7.85      31.91
H       5.65       2.28      31.22
H       6.20       3.94      30.98
H       6.66       0.54      29.48
H       8.81      -0.30      28.55
H      10.79       1.21      28.47
H       7.66       5.22      32.35
H       8.31       3.57      32.46
H       9.98       6.14      32.18
H      10.65       4.52      32.29
H       9.70       4.24      34.60
H       8.97       5.86      34.52
H      10.74       5.68      34.51
O      13.54       1.79      25.28
O      13.20       3.17      23.57
O       9.58       5.97      28.03
O       6.95       7.13      26.42
H      10.88       4.62      29.96
H      11.91       3.21      29.61
O       6.06       5.23      28.75
O       8.56       4.55      30.61
O       2.59      -0.07      28.28
O       2.07       0.86      26.31
