96

C       2.50      14.36       4.31
C       2.24      15.84       4.03
C       2.23      16.76       5.08
C       1.94      18.11       4.85
C       1.59      18.53       3.57
C       1.56      17.63       2.50
C       1.94      16.30       2.74
C       3.28      15.51       0.96
C       3.84      14.13       0.66
C       5.23      14.24       0.01
C       1.04      18.07       1.14
C      -0.35      18.66       1.31
C      -0.52      20.04       1.27
C      -1.75      20.63       1.61
C      -1.91      22.09       1.50
C      -2.81      19.82       2.02
C      -2.68      18.43       2.07
C      -1.45      17.86       1.67
C      -1.34      15.81       0.46
C      -2.76      15.67      -0.10
C      -2.76      15.01      -1.48
C      -3.79      17.58       2.66
C      -3.38      17.11       4.04
C      -3.07      18.03       5.05
C      -2.58      17.59       6.28
C      -2.35      16.23       6.50
C      -2.65      15.29       5.51
C      -3.21      15.74       4.30
C      -4.94      14.34       3.58
C      -5.20      13.11       2.72
C      -6.62      12.58       2.94
C      -2.32      13.82       5.72
H      -1.16      13.24       8.10
H       0.03      13.27       1.83
H       0.89      12.36       3.09
H      -2.15      12.37       2.69
H      -1.31      11.49       3.97
H      -0.15      10.03       2.29
H      -1.90       9.98       2.01
H      -0.87      10.95       0.95
H       2.95      13.60       6.91
H       3.51      14.22       4.70
H       2.43      13.82       3.36
H       2.44      16.41       6.09
H       1.97      18.82       5.67
H       1.31      19.57       3.39
H       3.13      16.09       0.04
H       3.99      16.07       1.58
H       3.90      13.56       1.60
H       3.15      13.58       0.00
H       5.67      13.26      -0.16
H       5.18      14.77      -0.95
H       5.92      14.81       0.66
H       1.03      17.20       0.47
H       1.69      18.83       0.70
H       0.31      20.68       1.00
H      -3.76      20.28       2.30
H      -0.70      16.33      -0.26
H      -0.90      14.83       0.66
H      -3.36      15.10       0.62
H      -3.21      16.67      -0.17
H      -2.32      14.00      -1.44
H      -3.78      14.91      -1.88
H      -2.18      15.59      -2.21
H      -3.99      16.71       2.03
H      -4.71      18.19       2.70
H      -3.19      19.09       4.85
H      -2.36      18.31       7.07
H      -1.92      15.90       7.44
H      -5.06      14.10       4.64
H      -5.66      15.15       3.35
H      -4.46      12.34       2.97
H      -5.04      13.37       1.67
H      -7.38      13.34       2.70
H      -6.82      11.70       2.31
H      -6.78      12.28       3.99
H      -2.90      13.41       6.56
H      -2.60      13.27       4.81
O       0.49      12.76       9.93
O       2.61      13.03       9.32
O      -0.29      13.98       3.71
O       2.02      15.40       1.67
O      -1.31      16.48       1.74
O      -0.88      22.83       1.26
O      -3.07      22.61       1.58
O      -3.60      14.81       3.34
C       1.37      13.02       9.02
C       0.94      13.32       7.64
C      -0.42      13.39       7.32
C      -0.85      13.63       6.02
C       0.12      13.79       5.01
C      -0.07      12.84       2.84
C      -1.22      11.84       2.93
C      -1.02      10.64       1.99
C       1.50      13.85       5.33
C       1.90      13.59       6.64
