21

Mg       3.17      11.54       9.57
Mg      10.03      13.66       8.81
C       8.13      14.69      10.94
Mg       6.60      12.60       9.19
O       6.41      11.05      10.60
O       4.27      10.41      10.82
O       2.60      13.30       8.53
O       4.59      13.16       9.46
O       6.04      11.26       7.67
O       3.90      10.61       7.91
O       6.78      14.15       7.78
O       8.92      14.78       7.57
O      10.60      11.89       9.85
O       8.60      12.03       8.93
O       7.15      13.93      10.71
O       9.29      14.58      10.48
C       5.50      10.31      11.06
C       3.64      13.85       8.95
C       5.07      10.50       7.44
C       7.69      14.88       7.33
C       9.55      11.34       9.44
