14

Zn      31.79      24.84       8.27
C      32.64      23.39       6.18
O      32.45      26.43       7.16
Zn      34.43      24.83       8.27
O      32.45      23.21       9.37
O      34.72      26.43       7.16
O      34.72      23.21       9.36
C      33.58      26.92       6.82
C      32.64      26.29      10.37
O      31.49      25.94       9.88
O      33.77      23.73       6.66
O      31.50      23.73       6.68
C      33.58      22.73       9.71
O      33.77      25.94       9.89
