28

C      15.53       8.76      16.60
C      19.39       5.96      16.22
O      17.86       9.11      17.06
O      20.08       9.33      17.26
O      20.10       7.13      10.72
O      17.86       7.33      10.84
H      20.12       5.78      13.52
H      14.05       9.01      14.60
H      14.22       7.95      12.47
O      14.80       9.68      16.92
O      15.82       7.78      17.56
O      19.39       4.78      15.90
O      19.33       6.31      17.57
H      16.12       6.81      11.90
H      15.38       7.96      18.45
H      19.30       5.50      18.18
C      18.94       6.95      11.41
C      18.71       8.17      15.42
C      17.44       8.25      14.70
C      17.49       7.72      13.38
C      19.58       6.65      13.81
C      19.43       7.01      15.16
C      16.10       8.68      15.19
C      15.02       8.69      14.30
C      15.09       8.07      13.09
C      16.26       7.50      12.70
C      18.75       7.23      12.86
C      18.97       8.94      16.63
