29

H       7.11       1.53       5.73
H       4.23       1.16       4.11
H       4.58       1.45       6.33
O       4.00       3.47       1.55
O       5.35       1.60       1.59
H       6.18       4.96       3.30
H       6.56       5.22       5.48
O       5.84       4.58       8.01
O       6.83       2.48       7.96
O       4.19       6.13       2.50
H       4.82       5.26       5.87
O       2.87       5.29       4.11
H       3.17       2.59       4.09
H       3.62       2.96       6.32
H       6.71       1.32       3.56
H       7.45       2.91       3.22
H       7.88       3.13       5.44
H       2.86       4.68       4.91
C       6.66       2.40       3.81
C       5.26       3.00       3.47
C       5.76       3.27       6.02
C       4.47       2.45       5.84
C       6.94       2.55       5.30
C       6.09       3.42       7.46
C       4.94       2.74       2.06
C       5.31       4.53       3.85
C       5.61       4.67       5.35
C       4.20       2.25       4.34
C       4.09       5.36       3.44
