25

C      10.22       1.20      12.58
O       9.61       3.00      10.85
O      11.47       1.91      17.29
O      12.35       4.02      17.34
H      10.89       5.73      16.83
H      10.43       1.31      15.21
H      11.50       7.77      15.90
O      10.86       4.89      10.90
H      12.31       7.91      13.49
H      12.22       6.05      12.12
O       9.05       0.86      12.47
O      11.21       0.63      11.77
H      10.84      -0.04      11.11
C      10.95       3.35      15.56
C      11.10       4.60      14.98
C      11.27       4.69      13.60
C      10.55       2.37      13.39
C      10.60       2.26      14.77
C      11.14       5.75      15.78
C      11.49       6.95      15.24
C      11.90       7.02      13.91
C      11.77       5.92      13.09
C      10.87       3.59      12.79
C      10.49       3.79      11.40
C      11.55       3.11      16.86
