50

O       0.61      12.74      15.05
O      -1.21      12.42      13.74
O       1.97      13.31      12.55
Mn       2.20      14.00      14.46
Mn      -2.49      14.02      14.23
O       2.54      14.75      16.19
O       3.71      15.21      13.65
O       5.66      15.56      14.76
O       2.79      12.02      10.91
Mn       3.62      13.00       9.57
Mn       2.21      11.96       4.67
Mn      -2.49      11.97      24.01
Mn      -1.08      13.00      19.11
O      -2.19      14.74      12.52
O      -0.99      15.21      15.02
O       0.95      15.57      13.92
O       5.33      12.75      13.64
O       3.50      12.39      14.93
O      -2.70      13.32      16.12
O      -1.91      12.03      17.77
O      -2.16      11.23      25.73
O      -0.99      10.77       4.09
O       0.95      10.41       5.20
C      -0.03      13.86       4.96
C       2.14      13.81       7.09
C       2.26      10.04       2.43
O       5.32      13.23       5.49
O       3.49      13.57       4.18
O      -2.71      12.67      22.10
O      -1.91      13.96      20.46
C       4.45      10.13       4.66
C      -0.04      12.13      14.15
C       2.12      12.17      12.02
C       2.28      15.93      16.69
C       4.45      15.85      14.46
C      -2.43      15.93      11.99
C      -0.25      15.85      14.22
C       4.67      12.12      14.52
C      -2.57      12.18      16.65
C      -2.42      10.05      26.25
C      -0.25      10.13       4.90
C       4.66      13.85       4.59
C      -2.58      13.80      21.58
O       0.64      13.22       4.09
O      -1.20      13.59       5.37
O       2.01      12.67       6.56
O       2.79      13.96       8.21
O       2.49      11.24       2.96
O       3.71      10.77       5.46
O       5.65      10.41       4.36
