50

Mn       2.50       3.31       4.89
Mn       2.49       5.36      -4.88
Mn      -2.20       5.35      14.46
Mn      -2.21       3.30       4.67
O       4.06       4.11      -5.46
O       5.91       3.73      -4.20
Mn      -3.63       4.33       9.56
O       2.68       4.66      -3.01
O       1.92       3.37      -1.35
Mn       1.08       4.33       0.00
O      -0.62       4.08      -4.07
O       1.21       3.74      -5.38
O      -1.97       4.65      12.54
O      -2.79       3.36      10.90
O      -2.53       6.09      16.19
O       5.69       6.55      -5.47
O       3.75       6.91      -4.36
C       2.44       1.39       7.12
O      -0.63       4.57       4.08
O       1.21       4.91       5.37
O      -2.01       4.00       6.56
C       0.25       1.47       4.90
O      -2.79       5.30       8.21
O      -2.49       2.58       2.96
O       5.69       2.11       5.46
O       3.75       1.75       4.36
C       4.75       5.19       4.59
C       2.57       5.14       2.47
C       2.45       7.28      -7.12
C       0.26       7.19      -4.90
C       4.73       3.47      -4.59
C       2.56       3.52      -2.48
C       0.04       3.46      -4.97
C      -2.12       3.52      12.02
C      -2.27       7.27      16.69
C       4.96       7.19      -4.66
C       0.04       5.19       4.97
C      -2.13       5.14       7.09
C      -2.26       1.38       2.43
C       4.95       1.47       4.66
O       2.21       2.58       6.59
O       0.99       2.11       4.10
O      -0.95       1.75       5.20
O       4.08       4.57       5.48
O       5.91       4.90       4.18
O       2.70       4.00       3.00
O       1.92       5.30       1.35
O       2.23       6.08      -6.58
O       1.00       6.54      -4.11
O      -0.95       6.91      -5.19
