25

C       5.15       3.95      13.26
C       5.35       4.01      14.63
C       6.15       4.99      15.19
C       6.72       5.96      14.39
C       6.50       5.96      13.02
C       5.73       4.94      12.45
C       2.48       1.35      12.64
C       3.21       2.34      13.27
C       4.35       2.86      12.64
C       4.69       2.31      11.42
C       3.89       1.33      10.84
C       6.40       5.00      16.69
C       7.10       7.05      12.13
N       2.79       0.86      11.43
H       4.94       3.38      15.19
H       7.27       6.61      14.77
H       5.61       4.92      11.53
H       1.73       1.01      13.07
H       2.95       2.65      14.11
H       5.46       2.60      10.98
H       4.13       1.00      10.00
O       7.46       5.57      17.10
O       5.56       4.48      17.44
O       7.85       7.89      12.65
O       6.79       7.05      10.92
