46

Co       0.31       2.67       0.87
Co      -0.95      -0.00       1.42
Co      -1.90       5.33      -0.08
Co      -0.31      -2.67      -0.87
Co       0.95       0.00      -1.42
Co       1.49       5.40       0.08
H       1.55       0.65       1.32
H      -0.08       4.79       2.04
H      -1.55      -0.65      -1.32
H      -0.32       5.94      -2.04
C      -3.77       3.01       0.70
C      -3.61       1.63       0.99
C       3.24       3.46       1.36
C       2.33       2.42      -2.77
C       2.41       3.81      -2.50
C      -0.94       1.91       3.60
C       3.37       7.72      -0.70
C       3.61      -1.63      -0.99
C      -3.64       7.26      -1.36
C      -2.33      -2.42       2.77
C      -2.82       6.91       2.50
C       0.94      -1.91      -3.60
N      -2.30       1.34       0.76
N      -1.69       2.47       0.38
N      -2.54       3.49       0.32
N       1.54       1.86      -1.80
N       1.16       2.86      -0.99
N       1.66       4.03      -1.38
N       2.30      -1.34      -0.76
N       1.69      -2.47      -0.38
N       2.14       7.23      -0.32
N      -1.54      -1.86       1.80
N      -1.16      -2.86       0.99
N      -2.07       6.69       1.38
O       0.75       0.67       0.75
O      -0.03       4.69       1.07
O       3.11       4.70       1.03
O       2.28       2.69       1.67
O      -1.07       0.66       3.32
O      -0.33       2.75       2.87
O      -0.75      -0.67      -0.75
O      -0.37       6.04      -1.07
O      -3.51       6.03      -1.03
O      -2.28      -2.69      -1.67
O       1.07      -0.66      -3.32
O       0.33      -2.75      -2.87
