43

C       8.90       4.01       2.53
H      11.90       5.24      -5.14
C       8.20       5.31       2.64
C      10.53       3.89      -4.13
H      10.41       3.21      -0.76
H      12.26       3.71       0.65
H      13.56       4.82       1.03
C      11.75       0.52       1.97
C      10.11       3.33      -2.91
H      10.76       5.71       3.46
C      12.20       5.16      -2.99
H      10.01       3.62      -5.05
H      12.68      -0.03       1.85
C      11.58       4.81      -4.19
H      12.03       6.62       1.63
H       8.16       5.67       3.68
C      11.80       1.87       2.33
C      10.53      -0.13       1.72
C       9.31       0.52       1.84
H      12.10       4.59       3.28
H      14.00       7.39       0.16
H       7.18       5.21       2.24
H       8.36       0.02       1.65
C      13.45       6.02      -1.38
H       9.28       2.63      -2.91
H      15.19       6.10      -0.19
H      10.55      -1.17       1.40
H      15.01       7.46      -1.32
C      12.54       4.77       0.62
C      14.46       6.80      -0.64
H      10.66       5.80       0.85
N       8.32       2.82       2.30
H       8.72       6.08       2.05
N      12.59       5.13      -0.79
H      12.74       2.37       2.51
N      10.26       3.88       2.63
N      13.24       6.04      -2.71
C      10.73       3.65      -1.70
C       9.34       1.88       2.19
C      10.58       2.54       2.41
C      11.77       4.58      -1.77
C      11.57       5.63       1.44
C      11.21       4.98       2.78
