17

Ni       1.43      11.51      13.44
C       2.53      17.71      12.34
Ni       1.94      14.54      13.79
C       0.97      15.94      15.96
C       3.30      12.80      12.00
C       2.97      12.60      15.43
H       0.34      13.33      12.59
H       0.08      13.16      14.18
C       2.34      16.32      12.89
O       2.88      11.64      14.53
O       0.61      15.36      14.74
O       2.41      11.83      11.98
O       3.27      13.77      12.84
O       2.51      13.76      15.25
O       0.81      13.18      13.47
O       1.50      15.47      12.39
O       2.95      15.92      13.96
