17

Ni       5.08       6.48      23.76
C       3.40       5.38      25.51
C       3.13       5.52      22.07
C       3.66       1.87      24.56
Ni       4.23       3.53      23.54
O       3.04       2.30      23.52
C       6.44       1.92      22.84
H       6.12       4.56      24.47
H       6.15       4.70      22.84
C       3.12       0.72      25.36
O       3.46       6.47      22.93
O       5.25       2.52      22.38
O       4.37       6.27      25.39
O       3.17       4.47      24.64
O       3.59       4.35      22.13
O       5.55       4.76      23.65
O       4.71       2.56      24.90
