35

N       6.83       9.04       6.64
N       7.21       7.90       7.26
N       8.50       7.95       7.63
N       8.93       9.20       7.22
N      14.93      12.54       5.08
N      15.99      13.38       5.22
N      15.66      14.45       5.96
N      14.30      14.31       6.22
C       7.89       9.86       6.58
C       7.76      11.25       4.21
C       9.12      11.16       3.52
C       9.90      12.48       3.54
C      11.38      12.33       3.18
C      12.18      11.57       4.24
C      13.90      13.11       5.69
C      10.32       9.56       7.34
C      13.61      15.28       7.05
H       7.18      12.11       3.86
H       7.15      10.35       4.06
H       9.70      10.35       3.99
S       7.88      11.51       6.04
H       8.97      10.85       2.47
S      12.28      12.49       5.84
H       9.41      13.20       2.87
H       9.82      12.93       4.55
H      11.84      13.32       3.03
H      11.48      11.80       2.22
H      11.73      10.61       4.48
H      10.43      10.61       7.07
H      10.65       9.40       8.37
H      10.95       8.94       6.67
H      13.22      11.39       3.94
H      12.53      15.10       6.94
H      13.85      16.29       6.71
H      13.92      15.18       8.10
