35

C       9.55       3.26       5.80
C       9.42       4.64       8.18
C      10.78       4.55       8.87
C      11.56       5.88       8.84
C      13.04       5.73       9.21
C      13.84       4.97       8.15
C      15.56       6.51       6.69
C      11.98       2.95       5.05
C      15.27       8.67       5.34
H       8.84       5.51       8.52
H       8.81       3.75       8.32
H      11.36       3.75       8.40
H      10.62       4.24       9.92
H      11.07       6.59       9.52
H      11.48       6.32       7.84
H      13.50       6.72       9.35
H      13.14       5.19      10.16
H      13.38       4.00       7.90
H      14.88       4.79       8.45
H      12.09       4.01       5.31
H      12.31       2.80       4.01
H      12.61       2.34       5.71
H      14.19       8.50       5.45
H      15.51       9.69       5.68
H      15.58       8.58       4.29
S       9.54       4.90       6.35
S      13.94       5.88       6.55
N       8.49       2.43       5.75
N       8.87       1.30       5.13
N      10.15       1.35       4.76
N      10.59       2.59       5.17
N      16.59       5.93       7.31
N      17.65       6.77       7.17
N      17.31       7.85       6.43
N      15.96       7.71       6.16
