35

H       8.58       3.36      15.76
C       8.09       4.20      15.25
C       8.66       4.47      13.86
C       6.13       2.34      16.09
C       8.35       5.88      11.71
C       7.43       6.86      10.99
H       8.15       5.08      15.89
H       9.75       4.66      13.95
H       8.57       3.56      13.24
C       6.64       0.50      14.38
C       7.96       5.65      13.17
H       6.88       5.49      13.21
H       7.34       1.19      13.89
H       7.11      -0.48      14.56
H       5.76       0.37      13.74
H       8.34       4.92      11.16
H       9.39       6.25      11.63
H       7.30       7.79      11.56
H       7.80       7.13       9.99
H       5.48       3.83      12.33
H       5.17       2.16      11.77
H       6.85       2.77      11.89
H       8.14       6.56      13.75
C       5.90       4.83       9.84
S       6.26       3.76      15.14
S       5.68       6.26      10.77
C       5.81       3.04      11.64
N       5.78       2.28      17.40
N       5.68       0.98      17.73
N       5.96       0.18      16.71
N       6.28       1.03      15.67
N       6.17       4.76       8.52
N       6.21       3.45       8.18
N       5.95       2.65       9.23
N       5.69       3.53      10.29
