14

O      14.00      -2.40       6.49
O      16.28      -2.49       6.62
Cu      13.91      -4.36       6.91
Cu      16.37      -4.43       7.05
C      15.10      -3.74       9.45
C      15.17      -1.88       6.50
O      14.02      -4.84       4.97
O      16.30      -4.88       5.11
O      16.28      -6.39       7.46
O      14.00      -6.30       7.33
C      15.19      -5.05       4.50
C      15.11      -6.91       7.46
O      16.26      -3.95       8.98
O      13.98      -3.91       8.85
