16

Cu       0.95      -2.11      13.95
Cu       2.35       0.07      13.95
C       1.17       2.76      13.38
C      -0.70      -2.96      11.62
N       1.37      -3.81      15.03
N       4.06       0.38      15.05
N       1.93       1.77      12.87
N      -0.76      -2.42      12.86
C       2.13      -4.80      14.52
C       4.00       0.92      16.28
C       0.86      -3.96      16.28
C       5.27       0.07      14.54
C       2.44       1.92      11.63
C      -1.97      -2.11      13.37
I       0.38      -0.20      15.70
I       2.92      -1.84      12.20
