20

Mn       7.41       1.65      15.23
Mn       7.70       5.84      16.71
C       7.25       2.92      17.94
C       8.10      -0.49      13.95
C       7.09       8.05      17.88
C       7.97       4.59      13.97
N       9.81       6.10      17.14
N       5.27       1.52      14.97
O       7.55       1.86      17.30
O       7.00       4.04      17.37
O       7.98      -0.39      15.23
O       7.93       0.53      13.20
O       7.09       6.99      18.59
O       7.23       7.98      16.61
C      10.26       6.59      18.32
C      10.73       5.82      16.18
C       4.65       0.49      14.35
O       7.90       3.42      14.47
O       7.84       5.67      14.65
C       4.53       2.59      15.33
