324

C      -2.84      17.18      34.17
C      -2.24      18.31      34.80
C      -2.02      18.40      36.19
C      -2.43      17.33      37.00
C      -3.13      16.23      36.46
C      -3.35      16.19      35.07
C      -2.87      17.01      32.74
C      -2.12      17.85      31.85
C      -1.95      17.57      30.48
C      -2.60      16.43      29.95
C      -3.46      15.64      30.73
C      -3.58      15.95      32.11
C      -4.20      14.63      30.09
C      -3.60      15.19      37.30
C      -1.47      19.54      36.82
C      -1.18      18.40      29.63
C       3.45      17.72      19.36
C       4.15      16.65      20.00
C       4.12      16.42      21.39
C       3.36      17.29      22.19
C       2.72      18.42      21.64
C       2.80      18.63      20.25
C       3.34      17.83      17.93
C       3.66      16.75      17.06
C       3.34      16.76      15.68
C       2.73      17.91      15.15
C       2.50      19.06      15.92
C       2.81      19.00      17.30
C       2.03      20.22      15.27
C       2.03      19.34      22.46
C       4.86      15.40      22.03
C       3.63      15.65      14.84
C       0.44      12.37       4.49
C      -0.83      12.30       5.12
C      -1.01      12.39       6.52
C       0.13      12.56       7.33
C       1.43      12.54       6.78
C       1.56      12.42       5.38
C       0.60      12.48       3.06
C      -0.50      12.75       2.19
C      -0.34      13.06       0.82
C       0.97      13.07       0.29
C       2.08      12.71       1.06
C       1.88      12.41       2.42
C       3.33      12.59       0.41
C       2.57      12.61       7.61
C      -2.27      12.26       7.15
C      -1.45      12.55      44.44
C      17.43       6.20      12.00
C      16.89       5.03      12.61
C      16.69       4.91      14.00
C      17.05       5.99      14.82
C      17.68       7.14      14.30
C      17.89       7.21      12.90
C      17.44       6.40      10.57
C      16.66       5.58       9.69
C      16.48       5.89       8.32
C      17.14       7.02       7.80
C      18.02       7.79       8.58
C      18.16       7.46       9.95
C      18.76       8.80       7.93
C      18.10       8.19      15.15
C      16.18       3.74      14.61
C      15.67       5.09       7.49
C      11.03       5.44      41.63
C      10.31       6.51      42.23
C      10.29       6.75      43.63
C      11.02       6.68       0.00
C      11.67       4.73      43.94
C      11.64       4.52      42.54
C      11.21       5.34      40.20
C      10.87       6.41      39.31
C      11.23       6.43      37.95
C      11.93       5.31      37.44
C      12.18       4.17      38.22
C      11.81       4.21      39.58
C      12.71       3.03      37.57
C      12.34       4.65       0.35
C       9.56       7.79      44.23
C      10.91       7.52      37.11
C      13.94      11.34      26.87
C      15.23      11.43      27.48
C      15.45      11.28      28.87
C      14.33      11.04      29.69
C      13.02      11.04      29.17
C      12.85      11.22      27.78
C      13.77      11.29      25.44
C      14.87      11.04      24.56
C      14.69      10.76      23.18
C      13.38      10.77      22.67
C      12.27      11.13      23.45
C      12.49      11.39      24.82
C      11.03      11.30      22.80
C      11.91      10.84      30.02
C      16.72      11.38      29.47
C      15.79      10.48      22.34
C      -1.40      14.93      40.21
C      -2.66      14.54      39.70
C      -3.47      13.69      40.48
C      -1.80      13.62      42.16
C       0.51      16.39      40.08
C       0.83      17.45      25.33
C       1.06      18.77      24.90
C       0.70      19.82      25.76
C      -0.12      18.27      27.35
C       1.27      15.09      25.05
C       1.63      14.54      10.56
C       2.62      13.67      10.07
C       3.74      13.39      10.88
C       2.90      14.84      12.55
C      -0.58      15.49      10.37
C      15.91       8.20      18.07
C      17.14       8.70      17.59
C      17.88       9.58      18.41
C      16.19       9.47      20.06
C      14.00       6.74      17.82
C      13.56       6.41       3.32
C      13.32       5.14       2.76
C      13.70       3.99       3.49
C      14.53       5.37       5.23
C      13.40       8.83       3.22
C      12.94       8.83      32.91
C      11.92       9.66      32.41
C      10.76       9.85      33.19
C      11.63       8.40      34.85
C      15.17       7.91      32.72
C      13.06      -0.51      38.52
C      13.05       0.60      37.65
C      13.11       0.32      36.26
C      -0.88      21.88      36.67
C      14.28      -0.49      40.51
C       7.80      12.81      23.73
C       8.78      12.27      22.86
C       8.53      12.40      21.47
C       6.62      13.73      21.88
C       7.17      11.67      25.67
C      -5.93      10.89       8.87
C      20.69      10.32       8.00
C      20.90      10.51       6.61
C      -4.58      11.54       7.01
C      -6.56      11.94      10.85
C      15.44      -0.13      16.25
C       1.70      22.65      15.36
C       1.69      22.95      13.98
C      15.64       1.39      14.42
C      14.14      -0.20      18.18
C       6.58      11.17       1.41
C       5.62      11.70       0.52
C       5.91      10.78      43.59
C       7.82       9.47      44.03
C       7.14      12.27       3.39
C      -7.08      12.57      31.08
C      -6.15      13.13      30.19
C      -6.41      12.99      28.81
C      19.05      12.02      29.27
C      -6.38      11.47      33.02
H      -1.96      19.12      34.24
H      -3.78      15.34      34.71
H      -2.31      17.39      38.01
H      -1.57      18.63      32.21
H      -2.53      16.23      28.95
H      -4.23      15.38      32.64
H      -4.10      14.53      29.08
H      -4.26      14.48      36.96
H      -1.40      19.55      37.84
H      -0.84      19.31      29.94
H       4.74      16.03      19.44
H       2.25      19.40      19.88
H       3.36      17.16      23.21
H       4.01      15.87      17.43
H       2.53      17.95      14.14
H       2.68      19.85      17.84
H       1.90      20.19      14.26
H       1.76      20.26      22.10
H       4.82      15.32      23.05
H       4.23      14.88      15.15
H      -1.67      12.14       4.56
H       2.51      12.49       5.02
H       0.02      12.60       8.34
H      -1.45      12.83       2.55
H       1.11      12.46      43.74
H       2.69      12.10       2.95
H       3.37      11.94      43.85
H       3.50      12.40       7.25
H      -2.31      12.29       8.18
H      -2.41      13.19       0.29
H      16.66       4.23      12.04
H      18.26       8.09      12.55
H      16.94       5.91      15.84
H      16.10       4.81      10.05
H      17.05       7.24       6.81
H      18.83       8.01      10.48
H      18.64       8.92       6.92
H      18.73       8.93      14.81
H      16.11       3.71      15.63
H      15.33       4.16       7.78
H       9.75       7.14      41.66
H      12.20       3.75      42.20
H      10.99       6.83       1.02
H      10.45       7.27      39.67
H      12.17       5.29      36.44
H      11.97       3.36      40.11
H      12.87       3.08      36.57
H      12.69       3.74       0.02
H       9.56       8.68       0.80
H      10.26       8.25      37.40
H      16.05      11.65      26.91
H      11.90      11.11      27.43
H      14.47      10.95      30.70
H      15.81      10.93      24.91
H      13.24      10.61      21.66
H      11.68      11.68      25.37
H      11.00      11.16      21.79
H      10.95      11.00      29.70
H      16.79      11.31      30.49
H      16.76      10.66      22.63
H      -4.39      13.40      40.15
H       0.13      17.06      40.86
H       1.03      17.00      39.33
H       1.23      15.69      40.51
H       0.85      20.80      25.49
H       2.06      15.09      25.79
H       1.54      14.40      24.25
H       0.34      14.74      25.50
H       4.47      12.76      10.56
H      -0.99      14.84      11.14
H      -1.34      15.64       9.60
H      -0.34      16.47      10.80
H      18.78       9.95      18.10
H      14.29       6.10      18.66
H      13.55       6.11      17.06
H      13.25       7.46      18.16
H      13.53       3.06       3.11
H      12.79       8.90       4.12
H      13.07       9.59       2.52
H      14.45       9.01       3.47
H      10.00      10.45      32.87
H      15.55       8.47      33.59
H      15.97       7.85      31.98
H      14.91       6.90      33.02
H      13.10       1.07      35.56
H       0.91      22.40      40.35
H      14.15      -0.34      41.58
H      14.99       0.27      40.15
H       9.19      12.05      20.78
H       6.10      11.81      25.49
H       7.34      11.68      26.75
H       7.49      10.70      25.28
H      20.26      10.13       5.92
H      -5.91      12.81      10.69
H      -6.61      11.76      11.93
H      20.01      12.17      10.49
H       1.73      22.22      13.27
H      13.71       0.80      18.02
H       0.44      23.53      19.26
H      -0.32      22.93      17.78
H       5.26      11.13      42.88
H       8.22      12.14       3.25
H       6.93      12.24       4.46
H       6.84      13.25       3.01
H      -5.79      13.37      28.10
H      20.54      10.61      32.86
H      -6.28      11.63      34.09
H      -5.39      11.25      32.61
N      -3.03      13.26      41.70
N      -1.01      14.42      41.40
N      -1.21      13.20      43.28
N      -3.00      14.99      38.48
N       0.13      19.55      26.97
N       0.21      17.26      26.52
N      -0.75      17.89      28.46
N       1.56      18.99      23.67
N       3.85      13.97      12.11
N       1.84      15.13      11.77
N       2.96      15.55      13.68
N       2.47      13.18       8.83
N      17.40       9.93      19.63
N      15.47       8.65      19.27
N      15.56       9.84      21.18
N      17.53       8.35      16.35
N      14.28       4.13       4.71
N      14.19       6.47       4.52
N      15.20       5.64       6.36
N      12.77       5.12       1.53
N      10.65       9.23      34.40
N      12.74       8.20      34.09
N      11.61       7.66      35.96
N      12.10      10.21      31.19
N      -0.78      22.93      35.82
N      -0.84      22.12      38.01
N      -1.19      20.68      36.15
N      12.83       1.83      38.18
N       7.49      13.14      21.03
N       6.79      13.55      23.22
N       5.73      14.61      21.36
N       9.93      11.81      23.41
N      -5.53      11.08       6.16
N      -4.80      11.44       8.35
N      -3.39      11.90       6.48
N      19.74       9.51       8.54
N      15.58       0.35      13.56
N      15.57       1.13      15.76
N      15.95       2.60      13.92
N       1.90      21.42      15.89
N       6.97      10.06      43.16
N       7.62      10.44       0.92
N       8.72       8.59      43.54
N       4.44      12.11       1.03
N      19.98      12.47      28.39
N      19.32      12.08      30.60
N      17.83      11.72      28.78
N      -5.17      13.92      30.71
O      -0.56      15.69      39.43
O       1.09      16.40      24.47
O       0.57      14.90       9.75
O      15.14       7.40      17.25
O      13.25       7.54       2.60
O      14.05       8.58      32.13
O      13.00      -0.35      39.88
O       7.94      12.74      25.09
O      -6.03      10.76      10.22
O      15.45      -0.30      17.60
O       6.40      11.21       2.76
O      -6.93      12.66      32.44
