18

In       2.50       7.43       0.00
O       0.70       8.23      -0.64
In      -1.13       7.43       0.00
O       1.86       5.43      -0.68
O      -0.26       5.47      -0.08
H       1.02       9.04      -1.02
O       3.32       7.80      -1.99
O      -1.78       7.27      -2.03
O       4.31       6.62       0.64
C       0.60       7.20       2.56
O       3.15       9.42       0.68
C       4.41       7.65      -2.56
H       3.99       5.81       1.02
C       4.26       9.93       0.55
C       0.75       4.92      -0.55
O      -2.01       9.39       0.08
O       1.69       7.05       1.99
O      -0.48       7.58       2.03
