18

In       0.00       0.00      11.03
C      -1.91      -0.22       8.47
In      -3.64       0.00      11.03
C       1.75       2.51      10.48
C      -1.75      -2.51      11.58
O      -1.81       0.80      11.67
O      -0.65      -1.99      11.71
O      -2.76      -1.96      11.11
O       0.81       0.37      13.02
O      -4.29      -0.15      13.06
H      -1.49       1.61      12.05
H       1.49      -1.61      10.01
O      -0.81      -0.37       9.04
O      -2.99       0.15       9.00
O       1.81      -0.80      10.39
O       0.65       1.99      10.35
O      -4.51       1.96      10.95
C       1.91       0.22      13.59
