102

Ba      10.49      11.69       6.22
Ba      12.95      15.13       4.47
Ba       6.12      11.38       7.25
Ba       6.25       6.98       8.33
Ba       9.37       1.94       4.29
Ba       6.18      16.83       8.59
Ba       3.51       4.83       5.28
Ba       5.97      20.86       7.04
Ba      13.10       5.14       4.25
Ba      13.23       9.53       3.18
Ba       2.39      14.58       7.21
Ba      13.16      19.16       2.91
H       3.50       5.30       8.71
H       3.04       6.53       8.25
H       9.25       1.47       7.52
H       9.16       0.23       7.15
H      11.87      21.71       2.39
H      10.84      21.41       1.51
H      10.47      11.21       2.80
H      10.01       9.99       3.25
H      16.23      15.05       3.99
H      16.14      16.28       4.35
H       4.89      14.28       9.12
H       3.86      14.58      10.00
C       7.81      19.32       9.89
C       6.16       3.89       9.79
C      14.79      16.67       1.62
C      13.14      12.62       1.71
C       5.58       9.38      10.42
C       7.10      13.49      10.01
C       8.09       9.05       5.82
C       9.41       4.85       3.25
C      11.19       7.93       5.67
C       7.35       4.64       5.93
C       9.40      13.89       3.97
C       7.32      18.43       5.17
C      10.77      17.97       4.66
C       7.92      14.42       6.88
C      12.56       7.13       1.09
C      14.08       3.02       1.49
C      15.06       7.46       5.68
C       2.44      11.67       8.25
C       4.22       8.59       5.84
C      14.33      11.87       5.57
C       2.42       2.62       7.53
C      14.30      17.56       6.33
C       3.79      18.02       6.85
C      14.89       2.09       4.63
O       8.25      18.16      10.06
O       6.78      19.55       9.22
O       6.37       5.01      10.26
O       6.28       3.61       8.56
O      15.23      17.83       1.45
O      13.76      16.44       2.28
O      13.35      11.50       1.25
O      13.26      12.90       2.95
O       6.37       9.71       9.49
O       5.10       8.23      10.55
O       7.35      14.73       9.99
O       6.12      12.97       9.39
O       7.91       8.50       6.93
O       8.16      10.30       5.65
O       8.80       4.01       2.56
O      10.45       4.58       3.90
O      11.91       7.58       4.71
O      11.09       9.09       6.07
O       6.31       5.30       5.95
O       7.44       3.42       5.53
O      10.50      14.04       4.53
O       8.93      12.78       3.62
O       7.30       0.13       4.70
O       7.05      18.18       6.36
O      10.83      19.22       4.66
O      11.21      17.25       3.73
O       6.73      14.77       6.82
O       8.32      13.22       6.91
O       3.62       5.92       8.14
O       8.93       1.04       7.03
O      11.21      21.19       2.24
O      13.34       6.80       2.02
O      12.08       8.28       0.95
O      14.33      21.27       1.52
O      13.10       3.55       2.12
O      14.88       8.01       4.58
O      15.14       6.21       5.85
O       1.82      12.50       8.95
O       3.47      11.94       7.61
O       4.94       8.93       6.79
O       4.11       7.42       5.44
O      13.28      11.22       5.56
O      14.41      13.09       5.98
O       3.52       2.47       6.97
O       1.96       3.74       7.89
O      14.28      16.39       6.81
O      14.03      17.81       5.15
O       3.85      16.77       6.85
O       4.23      18.74       7.77
O      13.70      21.22       4.68
O      15.30       3.29       4.60
O      10.60      10.60       3.37
O      15.90      15.47       4.47
O       4.23      14.80       9.27
