102

Ba       3.46       1.86      16.79
Ba       1.00      -1.58      18.54
Ba       7.83       2.17      15.76
Ba       7.70       6.57      14.68
Ba       4.58      11.61      18.72
Ba       7.77      -3.28      14.42
Ba      10.44       8.73      17.73
Ba       7.98      -7.31      15.97
Ba       0.85       8.42      18.76
Ba       0.73       4.02      19.83
Ba      11.56      -1.03      15.80
Ba       0.79      -5.61      20.10
H      10.46       8.25      14.30
H      10.92       7.02      14.76
H       4.70      12.08      15.49
H       4.80      13.32      15.86
H       2.09      -8.16      20.62
H       3.12      -7.86      21.50
H       3.48       2.34      20.21
H       3.94       3.56      19.76
H      -2.27      -1.50      19.02
H      -2.18      -2.73      18.66
H       9.06      -0.73      13.89
H      10.10      -1.03      13.01
C       8.37       4.17      12.59
C       6.85       0.06      13.00
C       5.87       4.50      17.19
C       4.54       8.70      19.76
C       2.76       5.62      17.34
C       6.60       8.91      17.08
C       4.55      -0.34      19.04
C       6.63      -4.88      17.84
C       3.18      -4.42      18.35
C       6.04      -0.87      16.13
C       1.40       6.42      21.92
C      -0.12      10.53      21.52
C      -1.11       6.09      17.33
C      11.52       1.88      14.76
C       9.74       4.96      17.17
C      -0.37       1.68      17.44
C      11.53      10.93      15.48
C      -0.34      -4.01      16.68
C      10.16      -4.47      16.16
C      -0.94      11.46      18.38
C       6.14      -5.77      13.12
C       7.80       9.66      13.22
C      -0.84      -3.12      21.39
C       0.82       0.93      21.30
O       7.59       3.84      13.52
O       8.85       5.32      12.46
O       6.61      -1.17      13.02
O       7.83       0.58      13.62
O       6.05       5.05      16.08
O       5.79       3.25      17.36
O       5.16       9.54      20.45
O       3.50       8.98      19.11
O       2.04       5.97      18.30
O       2.87       4.46      16.94
O       7.65       8.25      17.06
O       6.52      10.13      17.48
O       3.46      -0.49      18.48
O       5.02       0.77      19.39
O       6.66      13.42      18.31
O       6.90      -4.63      16.65
O       3.12      -5.67      18.35
O       2.74      -3.70      19.28
O       7.23      -1.22      16.19
O       5.63       0.33      16.10
O      10.33       7.63      14.87
O       5.03      12.51      15.98
O       2.74      -7.64      20.77
O       0.61       6.75      20.99
O       1.87       5.27      22.06
O      -0.37      -7.72      21.49
O       0.86      10.00      20.89
O      -0.93       5.54      18.43
O      -1.19       7.34      17.16
O      12.13       1.05      14.06
O      10.48       1.61      15.40
O       9.02       4.62      16.22
O       9.84       6.13      17.57
O       0.67       2.34      17.45
O      -0.46       0.46      17.03
O      10.43      11.08      16.04
O      12.00       9.81      15.12
O      -0.32      -2.83      16.20
O      -0.08      -4.26      17.86
O      10.10      -3.22      16.16
O       9.72      -5.19      15.24
O       0.25      -7.67      18.33
O      -1.34      10.26      18.41
O       3.36       2.96      19.64
O      -1.95      -1.92      18.54
O       9.72      -1.25      13.74
O       5.70      -4.61      12.95
O       7.17      -6.00      13.79
O       7.59       8.54      12.75
O       7.67       9.94      14.45
O      -1.28      -4.28      21.56
O       0.19      -2.89      20.73
O       0.61       2.05      21.76
O       0.69       0.65      20.06
