11

C       1.73       4.52       8.90
C       1.87       7.31      11.68
Co       0.95       6.95       8.94
N      -0.19       6.22       7.51
N       2.10       7.67      10.38
C       0.04       6.59       6.22
O       0.86       8.64       8.14
C       0.18       9.38       9.01
O       1.02       5.25       9.75
C       3.00       8.68      10.17
C      -1.09       5.22       7.72
