21

Ni       0.43       0.98      14.14
C       1.19      -1.66      12.95
Ni      -0.95       4.01      13.63
C      -0.49      -1.87      14.53
C      -1.92       5.72      11.33
C      -3.50       5.41      12.99
N       0.36      -1.08      13.85
N      -2.26       5.18      12.52
C       0.24       2.16      11.49
C       3.27       1.56      14.59
C      -2.58       1.64      14.25
O       0.79       1.24      12.17
O      -0.43       3.14      11.94
O       2.30       0.71      14.69
O      -1.56       0.87      14.23
H       1.58       3.11      14.68
H       0.23       3.35      15.69
O      -2.56       2.92      14.23
O      -1.07       5.37      15.03
C      -1.11       5.08      16.29
O       0.55       2.99      14.76
