1068

H       0.06      19.65      95.81
H      -0.56      19.84      93.53
H       0.37      20.82      88.88
H       1.76      21.58      87.11
H       4.60      22.93      89.90
H       3.62      21.74      95.04
H       1.34      24.14      91.94
H       3.45      27.40      93.56
H       5.33      26.03      93.92
H       4.08      19.48      91.75
H       7.85      22.00      93.46
H       8.13      19.72      92.91
H       0.53      19.81      91.23
H      -0.20      21.42      91.41
H       6.53      24.08      92.79
H       5.99      23.57      94.40
H      -0.92      19.96      28.45
H      -0.46      20.40      26.17
H      -0.06      19.11      21.52
H      -0.09      17.52      19.75
H      -0.35      14.39      22.54
H      -0.88      15.83      27.68
H       2.33      16.61      24.59
H       4.10      13.15      26.20
H       1.98      12.20      26.56
H      -3.08      16.56      24.40
H      -2.78      12.03      26.09
H      -4.89      12.94      25.55
H      -1.02      19.47      23.87
H       0.74      19.30      24.05
H      -0.32      12.14      25.42
H      -0.49      12.86      27.04
H      -0.16      20.65      62.13
H      -0.01      20.02      59.84
H      -1.33      20.33      55.20
H      -2.68      21.15      53.42
H      -5.26      22.95      56.22
H      -3.75      22.69      61.35
H      -4.68      19.52      58.26
H      -8.56      19.71      59.88
H      -8.32      22.03      60.24
H      -2.03      24.22      58.07
H      -6.09      26.23      59.78
H      -4.25      27.60      59.23
H      -0.54      20.98      57.54
H      -1.56      19.54      57.73
H      -7.23      24.04      59.10
H      -6.52      23.83      60.72
H      16.68      10.42      95.68
H      17.30      10.25      93.40
H      16.42       9.24      88.75
H      15.06       8.45      86.97
H      12.21       7.07      89.75
H      13.14       8.29      94.89
H      15.46       5.90      91.77
H      13.45       2.66      93.55
H      11.55       4.00      93.91
H      12.65      10.54      91.63
H       8.86       7.85      92.99
H       8.53      10.10      92.36
H      16.23      10.25      91.09
H      16.98       8.65      91.29
H      10.31       5.85      92.62
H      10.77       6.45      94.23
H      17.78      10.18      28.33
H      17.32       9.73      26.05
H      16.89      10.99      21.40
H      16.89      12.57      19.62
H      17.11      15.72      22.40
H      17.70      14.31      27.54
H      14.47      13.50      24.42
H      12.66      16.86      26.20
H      14.78      17.83      26.56
H      19.89      13.61      24.28
H      19.46      18.24      25.64
H      21.57      17.40      25.01
H      17.86      10.66      23.74
H      16.10      10.80      23.94
H      17.00      17.98      25.27
H      17.29      17.28      26.88
H      17.01       9.35      62.00
H      16.85       9.98      59.72
H      18.17       9.72      55.08
H      19.54       8.93      53.30
H      22.15       7.16      56.08
H      20.63       7.36      61.22
H      21.54      10.55      58.10
H      25.35      10.44      59.87
H      25.14       8.13      60.24
H      18.93       5.81      57.95
H      23.15       3.87      59.32
H      21.38       2.46      58.69
H      17.39       9.04      57.42
H      18.39      10.49      57.61
H      24.16       6.13      58.95
H      23.40       6.23      60.56
H      17.71      10.31      37.10
H      16.99      10.26      39.36
H      17.61       9.50      44.05
H      18.81       8.75      45.94
H      21.83       7.21      43.44
H      21.19       8.21      38.16
H      18.78       5.97      41.27
H      20.91       2.69      39.73
H      22.81       4.05      39.40
H      21.53      10.63      41.42
H      25.33       8.06      39.88
H      25.60      10.35      40.38
H      17.98      10.41      41.70
H      17.21       8.82      41.55
H      23.98       6.01      40.55
H      23.48       6.49      38.92
H      16.60      10.30       3.42
H      17.00       9.70       5.68
H      17.35      10.62      10.37
H      17.40      12.04      12.26
H      17.22      15.42       9.76
H      16.67      14.37       4.48
H      19.82      13.40       7.59
H      21.59      16.89       6.05
H      19.47      17.85       5.72
H      14.41      13.44       7.75
H      14.73      18.02       6.20
H      12.62      17.11       6.70
H      16.38      10.49       8.02
H      18.14      10.61       7.87
H      17.19      17.88       6.87
H      17.01      17.21       5.23
H      17.17       9.34      70.78
H      17.50       9.98      73.04
H      16.52       9.82      77.73
H      15.26       9.16      79.61
H      12.42       7.32      77.12
H      13.60       7.39      71.83
H      12.87      10.59      74.95
H       8.97      10.38      73.40
H       9.19       8.07      73.07
H      15.54       5.88      75.10
H      11.40       3.87      73.55
H      13.25       2.49      74.05
H      17.12       9.04      75.38
H      16.14      10.52      75.23
H      10.30       6.07      74.22
H      10.98       6.26      72.59
H      -0.98      19.75      37.22
H      -0.24      19.77      39.47
H      -0.82      20.55      44.16
H      -1.98      21.33      46.06
H      -4.99      22.93      43.59
H      -4.41      21.91      38.30
H      -1.95      24.13      41.43
H      -4.01      27.40      39.77
H      -5.92      26.07      39.44
H      -4.77      19.48      41.52
H      -8.60      22.23      40.42
H      -8.92      19.97      40.99
H      -1.23      19.65      41.82
H      -0.42      21.22      41.66
H      -7.12      24.21      40.76
H      -6.72      23.63      39.12
H       0.26      19.71       3.54
H      -0.12      20.33       5.79
H      -0.52      19.44      10.48
H      -0.60      18.04      12.38
H      -0.47      14.63       9.91
H       0.12      15.64       4.62
H      -3.03      16.67       7.75
H      -4.84      13.25       6.09
H      -2.73      12.26       5.77
H       2.40      16.55       7.84
H       1.93      11.86       6.74
H       4.05      12.71       7.31
H       0.47      19.54       8.14
H      -1.29      19.45       7.98
H      -0.52      12.15       7.08
H      -0.22      12.78       5.45
H      -0.32      20.81      70.89
H      -0.67      20.17      73.15
H       0.30      20.27      77.84
H       1.56      20.89      79.74
H       4.45      22.69      77.26
H       3.28      22.70      71.98
H       3.96      19.47      75.10
H       7.83      19.61      73.45
H       7.63      21.93      73.12
H       1.35      24.23      75.20
H       5.65      26.17      74.09
H       3.85      27.57      74.67
H      -0.28      21.08      75.50
H       0.67      19.59      75.34
H       6.62      23.90      74.44
H       5.93      23.84      72.80
H       3.72      24.64      82.82
H       3.66      18.98      86.85
H       3.78      17.55      85.80
H       1.17      18.88      86.71
H       1.85      17.37      87.36
H       1.30      17.44      85.67
H       4.94      21.12      86.61
H       2.43      23.18      80.84
H       1.57      14.29      15.47
H      -3.26      17.23      19.48
H      -4.56      17.84      18.42
H      -2.08      19.42      19.28
H      -3.72      19.62      19.94
H      -3.39      20.03      18.24
H      -2.08      15.01      19.26
H       0.95      16.15      13.49
H      -6.32      21.35      49.14
H      -1.36      24.13      53.18
H      -0.18      24.92      52.10
H      -0.04      22.01      53.08
H       0.93      23.36      53.69
H       1.15      22.81      52.02
H      -3.85      24.13      52.93
H      -4.40      20.94      47.16
H      13.14       5.38      82.68
H      13.12      11.04      86.71
H      13.00      12.47      85.65
H      15.61      11.16      86.59
H      14.91      12.67      87.23
H      15.48      12.60      85.55
H      11.88       8.88      86.46
H      14.43       6.86      80.70
H      15.18      15.77      15.32
H      20.06      12.91      19.35
H      21.36      12.31      18.29
H      18.90      10.70      19.17
H      20.55      10.53      19.82
H      20.21      10.10      18.13
H      18.84      15.11      19.11
H      15.83      13.90      13.35
H      23.15       8.81      49.00
H      18.27       5.95      53.04
H      17.09       5.13      51.98
H      16.91       8.04      52.93
H      15.96       6.68      53.56
H      15.74       7.22      51.88
H      20.76       5.96      52.79
H      21.21       9.18      47.03
H       7.21      13.65      93.24
H       9.85      19.33      89.82
H      11.46      18.79      89.29
H      10.80      20.02      92.01
H      11.61      20.84      90.67
H      12.42      19.49      91.48
H       7.84      18.26      90.72
H       9.22      12.25      93.35
H      25.31      16.77      25.89
H      -6.11      11.62      22.51
H      27.61      10.51      21.96
H      28.96      10.45      24.70
H      29.27       9.33      23.36
H      27.68       9.34      24.16
H      -6.02      13.93      23.35
H      23.09      15.72      26.00
H       1.46      29.84      59.55
H      -4.78      29.29      56.15
H      12.38       0.65      55.61
H      -5.85      29.77      58.34
H      -6.97      30.05      56.99
H      11.30       1.12      57.81
H      -2.84      28.09      57.03
H      19.16       1.98      59.67
H      24.73      16.45      39.95
H      27.34      10.72      43.25
H      -6.07      11.26      43.86
H      28.37      10.12      41.07
H      29.14       9.26      42.41
H      -5.04      10.65      41.67
H      25.27      11.86      42.53
H      -8.26      17.85      39.88
H       7.77      13.29       6.30
H      11.45      18.41       9.61
H      10.20      19.53      10.19
H      11.52      19.62       7.43
H      11.87      20.71       8.79
H      10.28      20.75       8.01
H      11.48      16.07       8.86
H       5.56      14.34       6.20
H      18.97       0.20      73.63
H      12.72       0.83      76.96
H      -5.12      29.49      77.55
H      11.65       0.28      74.78
H      10.53       0.04      76.13
H      -6.20      28.94      75.37
H      14.72       2.02      76.20
H       1.69      28.07      73.55
H      -2.46      29.88      90.72
H      21.95       1.19      92.11
H      21.07       0.35      90.81
H       5.85      29.46      92.47
H       5.97      30.04      90.80
H       4.97      28.63      91.18
H       2.25      28.10      91.30
H      14.49       1.85      91.40
H       9.21      17.01      23.34
H       7.18      10.25      24.77
H       6.88      11.44      23.47
H       4.72      10.02      25.12
H       5.17       9.64      23.44
H       4.43      11.20      23.83
H       5.31      13.84      23.94
H      11.45      16.36      24.04
H      27.22      13.36      57.03
H      22.37      18.50      58.44
H      23.55      18.17      57.15
H     -11.59      20.74      58.80
H      22.86      20.55      57.12
H     -10.41      20.41      57.51
H      -8.58      18.32      57.62
H      25.54      11.75      57.72
H      15.09       0.11      42.65
H       4.37      28.85      41.06
H       3.48      29.66      42.38
H      23.33       0.56      40.82
H       5.90      30.21      42.47
H      22.43       1.36      42.13
H      19.71       2.00      41.96
H      -2.94      28.15      41.94
H      26.74      13.14       8.97
H     -10.27      19.77       7.38
H     -10.55      18.60       8.69
H      22.25      20.05       7.13
H      22.78      20.43       8.78
H      21.99      18.88       8.43
H      22.80      16.19       8.28
H      -6.03      13.80       8.26
H       9.64      16.71      76.33
H       4.90      11.62      74.74
H       6.04      11.99      76.06
H       5.92       9.35      74.50
H       5.32       9.62      76.15
H       7.06       9.72      75.81
H       8.97      11.77      75.64
H       7.94      18.30      75.62
H       0.10      21.09     100.29
H       3.56      15.65       1.73
H       4.10      14.54       0.45
H       1.50      14.28       2.06
H       2.98      13.32       2.31
H       2.05      13.15       0.80
H       2.33      18.09       2.34
H       0.72      21.30      97.92
H       0.30      19.25      32.92
H      -6.12      18.93      35.41
H      -7.36      18.99      34.13
H      -6.29      21.40      35.69
H      -7.85      20.61      35.95
H      -7.54      21.46      34.43
H      -3.44      18.79      36.01
H       0.18      18.57      30.56
H      -1.34      19.93      66.58
H       1.58      25.68      69.09
H       2.21      26.73      67.80
H       3.81      24.58      69.29
H       3.91      26.34      69.56
H       4.45      25.65      68.01
H       0.10      23.44      69.68
H      -1.91      20.39      64.23
H      16.63       8.89     100.15
H      13.28      14.34       1.64
H      12.77      15.49       0.38
H      15.35      15.67       2.02
H      13.90      16.65       2.27
H      14.84      16.83       0.78
H      14.50      11.85       2.23
H      16.02       8.71      97.77
H      16.47      10.97      32.79
H      22.86      11.17      35.32
H      24.12      11.05      34.07
H      22.99       8.71      35.69
H      24.56       9.49      35.95
H      24.26       8.59      34.45
H      20.12      11.35      35.91
H      16.62      11.60      30.42
H      18.28      10.12      66.45
H      15.32       4.44      69.00
H      14.63       3.39      67.74
H      13.11       5.56      69.29
H      12.99       3.81      69.56
H      12.42       4.51      68.03
H      16.81       6.70      69.58
H      18.81       9.65      64.09
C       4.68      21.43      92.40
C       5.80      22.13      92.90
C       4.48      24.25      93.12
C       3.32      23.65      92.58
C       2.20      24.52      92.35
C       2.24      25.92      92.62
C       3.39      26.42      93.27
C       4.50      25.61      93.50
C       7.05      21.50      93.07
C       7.21      20.15      92.74
C       6.14      19.40      92.22
C       4.87      20.04      92.08
C       2.41      21.47      93.31
C       1.18      20.89      92.89
C       1.67      21.38      90.46
C       2.91      22.00      90.80
C       1.26      21.25      89.12
C       2.08      21.70      88.07
C       3.33      22.29      88.34
C       3.71      22.47      89.70
C       2.73      21.36      94.70
C       1.89      20.70      95.65
C       0.68      20.16      95.18
C       0.32      20.26      93.83
C       3.32      22.14      92.27
C       0.74      20.86      91.48
C       5.75      23.54      93.33
C      -1.69      15.07      25.04
C      -1.64      13.74      25.54
C       0.86      13.83      25.76
C       0.91      15.14      25.22
C       2.23      15.68      24.99
C       3.42      14.94      25.27
C       3.28      13.69      25.91
C       2.03      13.13      26.14
C      -2.81      12.98      25.71
C      -4.06      13.51      25.38
C      -4.17      14.82      24.86
C      -2.99      15.60      24.73
C      -0.51      17.02      25.95
C      -0.41      18.37      25.54
C      -0.22      17.70      23.11
C      -0.31      16.32      23.44
C      -0.14      18.12      21.76
C      -0.16      17.19      20.71
C      -0.26      15.81      20.98
C      -0.30      15.39      22.34
C      -0.78      16.79      27.35
C      -0.93      17.85      28.29
C      -0.79      19.17      27.82
C      -0.52      19.42      26.47
C      -0.40      15.89      24.91
C      -0.21      18.77      24.13
C      -0.40      13.09      25.97
C      -4.01      23.76      58.72
C      -5.18      24.39      59.22
C      -6.36      22.18      59.44
C      -5.25      21.48      58.89
C      -5.44      20.07      58.67
C      -6.68      19.40      58.94
C      -7.69      20.15      59.59
C      -7.54      21.52      59.82
C      -5.25      25.78      59.39
C      -4.17      26.59      59.06
C      -2.98      26.04      58.54
C      -2.90      24.63      58.40
C      -2.91      21.77      59.62
C      -1.79      21.00      59.21
C      -2.47      21.18      56.78
C      -3.62      21.95      57.11
C      -2.15      20.89      55.43
C      -2.94      21.38      54.39
C      -4.08      22.16      54.66
C      -4.42      22.40      56.02
C      -2.97      22.11      61.02
C      -1.98      21.72      61.97
C      -0.91      20.94      61.49
C      -0.82      20.57      60.15
C      -3.95      22.24      58.58
C      -1.55      20.63      57.80
C      -6.37      23.64      59.65
C      12.09       8.57      92.23
C      10.96       7.83      92.68
C      12.35       5.77      93.03
C      13.49       6.38      92.45
C      14.62       5.52      92.22
C      14.60       4.12      92.53
C      13.49       3.63      93.24
C      12.37       4.43      93.47
C       9.67       8.40      92.70
C       9.48       9.73      92.34
C      10.58      10.56      92.02
C      11.86       9.96      91.92
C      14.36       8.58      93.17
C      15.58       9.17      92.76
C      15.12       8.66      90.33
C      13.89       8.03      90.66
C      15.53       8.79      88.99
C      14.72       8.34      87.94
C      13.49       7.72      88.20
C      13.10       7.54      89.56
C      14.02       8.69      94.56
C      14.85       9.36      95.52
C      16.06       9.91      95.05
C      16.43       9.81      93.70
C      13.46       7.89      92.13
C      16.03       9.20      91.35
C      11.05       6.45      93.17
C      18.47      15.08      24.88
C      18.39      16.43      25.32
C      15.91      16.26      25.68
C      15.87      14.96      25.10
C      14.56      14.41      24.87
C      13.36      15.13      25.18
C      13.49      16.34      25.89
C      14.74      16.90      26.12
C      19.53      17.26      25.35
C      20.77      16.76      24.99
C      20.95      15.40      24.67
C      19.78      14.59      24.57
C      17.34      13.11      25.81
C      17.25      11.75      25.41
C      17.04      12.41      22.98
C      17.10      13.80      23.31
C      16.95      11.99      21.63
C      16.95      12.92      20.58
C      17.03      14.30      20.85
C      17.07      14.72      22.21
C      17.60      13.35      27.21
C      17.77      12.29      28.16
C      17.65      10.97      27.69
C      17.38      10.71      26.35
C      17.19      14.24      24.77
C      17.05      11.35      24.00
C      17.15      17.04      25.82
C      20.91       6.30      58.56
C      22.12       5.70      59.00
C      23.21       7.93      59.36
C      22.11       8.61      58.78
C      22.29      10.02      58.55
C      23.51      10.71      58.85
C      24.49       9.99      59.57
C      24.36       8.62      59.80
C      22.27       4.30      59.03
C      21.22       3.47      58.67
C      19.95       4.00      58.34
C      19.83       5.42      58.24
C      19.77       8.27      59.49
C      18.64       9.03      59.08
C      19.32       8.88      56.65
C      20.48       8.13      56.98
C      19.00       9.17      55.31
C      19.80       8.70      54.26
C      20.95       7.94      54.52
C      21.30       7.70      55.88
C      19.84       7.92      60.89
C      18.85       8.31      61.84
C      17.76       9.07      61.37
C      17.67       9.44      60.02
C      20.82       7.83      58.45
C      18.39       9.40      57.68
C      23.27       6.47      59.50
C      22.13       8.67      40.85
C      23.27       7.95      40.39
C      21.94       5.84      40.17
C      20.77       6.45      40.68
C      19.64       5.58      40.89
C      19.69       4.17      40.63
C      20.85       3.67      40.01
C      21.97       4.48      39.80
C      24.52       8.58      40.24
C      24.68       9.93      40.54
C      23.60      10.69      41.02
C      22.32      10.07      41.13
C      19.91       8.60      39.82
C      18.68       9.23      40.13
C      19.02       8.84      42.59
C      20.26       8.18      42.38
C      18.51       9.04      43.90
C      19.23       8.60      45.01
C      20.47       7.96      44.88
C      20.95       7.72      43.55
C      20.30       8.63      38.43
C      19.54       9.30      37.42
C      18.31       9.86      37.79
C      17.88       9.82      39.12
C      20.76       7.97      40.94
C      18.16       9.34      41.50
C      23.22       6.54      39.98
C      15.81      14.95       7.17
C      15.86      16.29       6.71
C      18.35      16.21       6.49
C      18.41      14.88       7.00
C      19.73      14.34       7.21
C      20.92      15.09       6.95
C      20.78      16.34       6.33
C      19.52      16.91       6.12
C      14.69      17.06       6.56
C      13.45      16.53       6.86
C      13.32      15.21       7.34
C      14.50      14.42       7.45
C      16.98      13.06       6.14
C      17.05      11.68       6.45
C      17.22      12.17       8.92
C      17.17      13.57       8.70
C      17.30      11.63      10.22
C      17.32      12.47      11.33
C      17.25      13.87      11.20
C      17.22      14.41       9.87
C      16.75      13.39       4.75
C      16.56      12.39       3.74
C      16.69      11.04       4.12
C      16.94      10.69       5.44
C      17.10      14.12       7.26
C      17.21      11.18       7.82
C      17.10      16.95       6.30
C      13.54       6.34      74.53
C      12.34       5.71      74.07
C      11.17       7.92      73.84
C      12.29       8.63      74.35
C      12.10      10.04      74.57
C      10.86      10.70      74.31
C       9.85       9.95      73.68
C       9.98       8.58      73.47
C      12.26       4.31      73.91
C      13.35       3.50      74.21
C      14.55       4.05      74.69
C      14.64       5.47      74.81
C      14.58       8.29      73.49
C      15.75       9.04      73.81
C      15.24       8.94      76.27
C      14.04       8.20      76.05
C      15.66       9.27      77.57
C      14.93       8.87      78.69
C      13.75       8.12      78.55
C      13.30       7.83      77.23
C      14.41       7.94      72.11
C      15.37       8.26      71.10
C      16.48       9.05      71.47
C      16.66       9.43      72.80
C      13.61       7.87      74.61
C      16.11       9.42      75.18
C      11.15       6.46      73.65
C      -5.34      21.47      41.02
C      -6.48      22.23      40.65
C      -5.10      24.29      40.27
C      -3.94      23.66      40.80
C      -2.80      24.52      41.01
C      -2.83      25.92      40.73
C      -3.96      26.42      40.05
C      -5.09      25.63      39.85
C      -7.78      21.67      40.66
C      -7.96      20.33      40.99
C      -6.86      19.48      41.23
C      -5.57      20.08      41.29
C      -3.13      21.49      39.95
C      -1.91      20.83      40.25
C      -2.22      21.24      42.72
C      -3.44      21.93      42.51
C      -1.71      21.04      44.02
C      -2.40      21.49      45.14
C      -3.64      22.15      45.01
C      -4.12      22.40      43.69
C      -3.53      21.47      38.57
C      -2.79      20.79      37.55
C      -1.56      20.21      37.92
C      -1.13      20.23      39.24
C      -3.96      22.14      41.08
C      -1.39      20.71      41.62
C      -6.41      23.62      40.17
C       0.96      15.06       7.34
C       0.87      13.69       6.97
C      -1.60      13.86       6.59
C      -1.64      15.18       7.12
C      -2.95      15.74       7.33
C      -4.15      15.01       7.05
C      -4.02      13.78       6.38
C      -2.77      13.20       6.18
C       2.00      12.85       6.98
C       3.26      13.36       7.31
C       3.44      14.74       7.55
C       2.28      15.56       7.61
C      -0.16      16.96       6.27
C      -0.21      18.35       6.57
C      -0.41      17.88       9.04
C      -0.39      16.47       8.83
C      -0.48      18.42      10.34
C      -0.52      17.60      11.46
C      -0.48      16.19      11.33
C      -0.46      15.65      10.01
C       0.06      16.63       4.89
C       0.27      17.61       3.87
C       0.16      18.97       4.24
C      -0.08      19.33       5.56
C      -0.31      15.92       7.40
C      -0.37      18.87       7.95
C      -0.37      13.06       6.50
C       3.36      23.73      74.70
C       4.59      24.33      74.32
C       5.68      22.11      73.95
C       4.55      21.42      74.48
C       4.73      20.00      74.69
C       5.96      19.33      74.41
C       6.96      20.06      73.74
C       6.84      21.43      73.53
C       4.75      25.73      74.34
C       3.68      26.56      74.66
C       2.40      26.04      74.90
C       2.26      24.62      74.97
C       2.27      21.81      73.63
C       1.09      21.08      73.93
C       1.60      21.14      76.40
C       2.81      21.85      76.19
C       1.16      20.80      77.70
C       1.90      21.18      78.82
C       3.10      21.92      78.69
C       3.56      22.20      77.37
C       2.45      22.16      72.24
C       1.50      21.85      71.23
C       0.38      21.09      71.59
C       0.18      20.70      72.92
C       3.25      22.19      74.75
C       0.72      20.69      75.30
C       5.75      23.57      73.85
C       4.28      22.16      84.96
C       3.89      23.67      83.11
C       3.85      22.61      82.18
C       4.22      21.08      84.02
C       4.25      19.75      84.40
C       3.19      18.45      86.03
C       1.78      18.01      86.47
C       4.55      21.99      86.33
C       3.33      22.75      80.89
C      -0.86      15.05      17.60
C       0.65      14.63      15.76
C      -0.25      15.19      14.82
C      -1.76      15.64      16.66
C      -2.92      16.29      17.04
C      -3.49      17.89      18.64
C      -3.15      19.34      19.05
C      -1.14      14.91      18.97
C       0.13      15.57      13.54
C      -4.44      23.05      51.28
C      -5.57      21.97      49.44
C      -4.62      22.46      48.50
C      -3.47      23.52      50.34
C      -2.32      24.20      50.73
C      -0.66      23.97      52.35
C       0.42      22.97      52.81
C      -4.43      23.37      52.65
C      -4.49      21.93      47.21
C      12.55       7.85      84.81
C      12.96       6.34      82.97
C      12.99       7.40      82.04
C      12.61       8.93      83.88
C      12.56      10.26      84.26
C      13.59      11.58      85.89
C      14.99      12.03      86.35
C      12.27       8.02      86.18
C      13.52       7.26      80.75
C      17.61      15.05      17.46
C      16.10      15.45      15.62
C      17.01      14.89      14.68
C      18.52      14.46      16.53
C      19.69      13.83      16.91
C      20.29      12.24      18.51
C      19.97      10.80      18.93
C      17.89      15.20      18.83
C      16.63      14.49      13.40
C      21.31       7.06      51.14
C      22.41       8.17      49.30
C      21.48       7.67      48.36
C      20.35       6.57      50.21
C      19.22       5.87      50.59
C      17.56       6.09      52.22
C      16.47       7.08      52.68
C      21.31       6.74      52.51
C      21.32       8.19      47.08
C       7.85      16.32      91.40
C       7.74      14.24      92.59
C       9.00      13.84      92.09
C       9.11      15.91      90.87
C       9.91      16.73      90.10
C      10.80      18.90      90.15
C      11.45      19.88      91.15
C       7.32      17.61      91.26
C       9.56      12.62      92.49
C      -7.69      14.88      24.05
C      25.55      16.02      25.24
C      24.57      15.12      24.74
C      26.31      13.99      23.52
C      26.62      12.89      22.74
C      28.03      11.02      22.83
C      28.52       9.96      23.83
C      -6.31      14.70      23.90
C      23.24      15.25      25.13
C      -1.17      29.06      57.72
C       0.69      30.01      58.91
C      17.90       1.00      58.41
C      16.05       0.05      57.20
C      14.94       0.34      56.42
C      12.61       0.02      56.48
C      11.44       0.09      57.47
C      -2.02      27.96      57.58
C      18.67       2.09      58.81
C      25.32      13.77      41.79
C      25.25      15.85      40.59
C      -8.47      16.23      41.09
C      26.60      14.16      42.31
C      -7.61      13.33      43.09
C      28.29      11.17      42.97
C      28.99      10.24      41.96
C      24.77      12.50      41.96
C      -7.91      17.45      40.72
C       9.79      15.17       8.11
C       8.03      14.05       6.93
C       7.06      14.97       7.41
C       8.82      16.09       8.62
C       9.15      17.20       9.38
C      10.60      19.03       9.31
C      11.10      20.10       8.32
C      11.18      15.32       8.28
C       5.73      14.85       7.04
C      16.35       1.02      75.46
C      18.19       0.04      74.27
C       0.39      29.06      74.76
C      -1.45      30.02      75.98
C      -2.56      29.75      76.75
C      -4.88      30.09      76.66
C      -6.05      29.98      75.67
C      15.53       2.13      75.63
C       1.16      27.96      74.39
C       0.53      29.04      91.84
C      -1.55      30.03      91.16
C      16.32       0.99      91.68
C      18.42       0.01      92.36
C      19.62       0.32      93.00
C      21.59       0.22      91.77
C       5.30      29.60      91.54
C       1.38      27.94      91.76
C      15.41       2.06      91.71
C       6.98      14.86      24.48
C       8.88      16.15      23.79
C       9.79      15.20      24.32
C       7.88      13.89      25.02
C       7.55      12.71      25.67
C       6.51      11.04      24.43
C       5.11      10.44      24.19
C       5.60      14.67      24.40
C      11.17      15.46      24.36
C      -8.53      16.37      58.16
C      26.64      14.07      57.47
C      25.36      13.76      58.00
C      25.17      16.07      58.70
C      24.31      16.95      59.34
C      23.40      18.68      58.10
C     -11.42      20.20      57.87
C      -8.00      17.65      58.08
C      24.89      12.44      58.03
C      18.01       1.05      41.42
C      -1.51      30.30      42.16
C      -1.14      29.05      41.60
C       0.91      30.10      40.85
C       2.08      29.84      40.16
C       4.03      29.82      41.44
C      22.75       0.39      41.74
C      18.84       2.16      41.50
C      -2.02      27.97      41.58
C      24.47      15.19       7.74
C      26.40      13.97       8.49
C      -7.71      14.91       7.92
C      25.36      16.16       7.16
C      25.00      17.30       6.48
C     -10.95      19.00       7.75
C      22.67      19.63       8.04
C      23.09      15.36       7.82
C      -6.32      14.69       7.90
C       8.99      13.72      75.10
C       9.09      16.00      75.84
C       7.82      16.30      75.28
C       7.71      14.00      74.53
C       6.89      13.12      73.84
C       5.91      11.44      75.12
C       6.06       9.93      75.41
C       9.54      12.44      75.18
C       7.32      17.61      75.26
C       1.40      18.33       0.56
C       0.67      20.24     100.31
C       1.46      19.86      99.19
C       2.19      17.93     100.47
C       2.98      16.78     100.49
C       3.22      14.98       0.93
C       2.38      13.86       1.57
C       1.52      17.79       1.85
C       1.45      20.63      98.01
C      -2.73      19.46      34.23
C      -0.72      19.17      32.94
C      -1.43      18.65      31.83
C      -3.47      18.96      33.12
C      -4.85      18.82      33.15
C      -6.54      19.54      34.60
C      -7.09      20.84      35.21
C      -3.26      19.63      35.52
C      -0.76      18.27      30.65
C       0.32      22.47      67.91
C      -0.92      20.86      66.60
C      -1.03      21.75      65.50
C       0.23      23.37      66.80
C       0.78      24.65      66.85
C       2.29      25.74      68.25
C       3.71      25.57      68.82
C       0.73      22.84      69.19
C      -1.70      21.36      64.32
C      15.40      11.66       0.44
C      16.09       9.75     100.17
C      15.31      10.15      99.06
C      14.62      12.09     100.35
C      13.85      13.25     100.38
C      13.63      15.02       0.86
C      14.49      16.12       1.52
C      15.29      12.19       1.73
C      15.30       9.39      97.87
C      19.48      10.66      34.11
C      17.49      11.01      32.81
C      18.22      11.50      31.70
C      20.25      11.13      33.00
C      21.64      11.23      33.04
C      23.28      10.53      34.54
C      23.81       9.24      35.20
C      20.00      10.50      35.41
C      17.57      11.89      30.52
C      16.58       7.63      67.79
C      17.84       9.20      66.48
C      17.93       8.31      65.38
C      16.63       6.72      66.69
C      16.06       5.45      66.74
C      14.58       4.39      68.20
C      13.18       4.58      68.81
C      16.17       7.27      69.08
C      18.59       8.68      64.19
N       4.05      22.73      87.29
N       6.40      18.09      92.04
N       1.25      26.83      92.43
N       2.23      20.49      96.95
N      -0.24      14.96      19.93
N      -5.44      15.25      24.68
N       4.71      15.34      25.07
N      -1.27      17.66      29.59
N      -4.82      22.57      53.61
N      -1.98      26.92      58.36
N      -6.98      18.09      58.75
N      -1.97      22.11      63.27
N      12.78       7.28      87.14
N      10.29      11.85      91.74
N      15.59       3.22      92.28
N      14.52       9.55      96.82
N      17.00      15.13      19.79
N      22.21      15.00      24.39
N      12.08      14.72      24.92
N      18.10      12.49      29.46
N      21.69       7.55      53.47
N      18.98       3.10      58.06
N      23.80      12.01      58.60
N      18.85       7.93      63.14
N      21.00       7.49      46.03
N      23.86      12.00      41.17
N      18.71       3.26      40.82
N      19.90       9.39      36.12
N      17.39      14.56      12.35
N      12.05      14.78       7.49
N      22.21      14.69       7.14
N      16.29      12.66       2.45
N      13.08       7.90      79.71
N      15.55       3.17      74.84
N      10.56      12.01      74.50
N      15.27       7.91      69.80
N      -4.15      22.63      46.17
N      -7.15      18.19      41.47
N      -1.85      26.83      40.98
N      -3.15      20.72      36.25
N      -0.64      15.51      12.49
N       4.71      15.14       7.79
N      -5.42      15.41       7.30
N       0.52      17.34       2.57
N       3.77      22.12      79.85
N       1.42      26.94      75.14
N       6.25      18.02      74.66
N       1.62      22.19      69.92
N       4.11      23.41      84.44
N       3.98      21.36      82.71
N       0.31      14.57      17.08
N      -1.39      15.71      15.35
N      -5.45      22.29      50.76
N      -3.59      23.17      49.03
N      12.73       6.60      84.29
N      12.86       8.65      82.56
N      16.44      15.51      16.94
N      18.15      14.38      15.21
N      22.30       7.84      50.62
N      20.46       6.93      48.89
N       7.23      15.45      92.25
N       9.62      14.70      91.25
N      -8.14      15.85      24.90
N      25.01      14.15      23.90
N      -0.11      28.96      58.56
N      16.84       1.10      57.58
N      24.72      14.65      40.95
N      -7.87      15.36      41.93
N       9.33      14.19       7.28
N       7.52      15.94       8.24
N      17.42       1.10      74.62
N      -0.67      28.96      75.60
N      -0.69      28.98      91.25
N      17.54       1.05      92.27
N       7.54      15.94      23.88
N       9.23      14.13      24.93
N      -7.87      15.34      57.56
N      24.71      14.78      58.60
N      16.81       1.07      42.06
N       0.06      29.03      40.96
N      25.05      14.14       8.39
N      -8.29      15.95       7.27
N       9.61      14.74      75.74
N       7.21      15.27      74.64
N       0.69      19.49       0.42
N       2.17      18.71      99.34
N      -1.37      19.52      34.08
N      -2.78      18.58      31.99
N      -0.28      21.26      67.74
N      -0.44      22.96      65.67
N      16.08      10.49       0.29
N      14.62      11.32      99.22
N      18.13      10.65      33.96
N      19.58      11.52      31.87
N      17.21       8.82      67.62
N      17.30       7.11      65.55
O       4.84      18.98      83.66
O       3.08      19.29      84.86
O      -3.89      16.13      16.31
O      -2.72      17.54      17.47
O      -1.96      25.11      49.98
O      -1.34      23.43      51.20
O      11.97      11.03      83.51
O      13.73      10.73      84.73
O      20.66      14.00      16.17
O      19.51      12.58      17.35
O      18.85       4.97      49.84
O      18.23       6.63      51.06
O      10.54      16.19      89.19
O      10.61      17.63      90.81
O      25.85      12.65      21.82
O      27.03      11.84      23.46
O      15.09       1.15      55.52
O      13.81       0.49      57.13
O      -7.02      13.86      44.02
O      -6.89      12.46      42.35
O       8.39      17.45      10.31
O       9.57      18.24       8.67
O      -2.42      28.95      77.67
O      -3.69      29.59      76.03
O      19.53       0.72      94.15
O       3.23      29.92      92.75
O       7.90      12.61      26.84
O       6.40      12.08      25.41
O      24.05      16.69      60.51
O      24.35      18.26      59.09
O       1.95      29.59      38.97
O      20.70       0.18      40.47
O      -9.74      17.31       5.28
O      23.88      17.96       6.78
O       6.73      13.35      72.66
O       6.90      11.82      74.15
O       3.75      16.60      99.56
O       2.41      15.67     100.98
O      -5.40      18.23      32.23
O      -5.54      19.87      33.61
O       0.48      25.43      65.95
O       2.05      24.72      67.27
O      13.10      13.48      99.44
O      14.43      14.34     100.90
O      22.21      11.77      32.10
O      22.29      10.18      33.55
O      16.30       4.67      65.83
O      14.80       5.41      67.20
