19

H       7.05       9.42       8.14
H       2.93       8.79       9.26
H       5.20      11.95      11.11
C       6.25      10.74       9.65
C       6.18       9.70       8.73
C       4.98       8.99       8.60
C       4.89       7.83       7.66
C       3.86       9.34       9.36
C       3.94      10.41      10.26
C       5.14      11.12      10.41
C       2.76      10.81      11.05
S       7.77      11.64       9.87
O       8.34      11.15      11.20
O       8.67      11.27       8.77
O       7.42      13.07       9.98
O       3.97       6.98       7.85
O       5.76       7.79       6.72
O       1.62      10.25      10.90
O       2.83      11.76      11.92
