558

H      22.96      15.41      22.26
H      25.15      14.44      22.41
H      27.50      13.87      22.71
H      29.87      13.73      23.04
H      30.28      17.81      22.02
H      24.69      19.19      21.46
H      26.99      17.51      18.78
H      28.98      20.92      17.26
H      29.37      21.70      19.49
H      26.61      19.03      24.24
H      29.18      22.37      21.80
H      28.44      22.84      24.03
H      22.96      39.12      23.53
H      25.15      39.74      24.30
H      27.50      40.28      24.63
H      29.87      40.63      24.59
H      30.28      37.71      21.57
H      24.69      36.54      20.66
H      26.98      35.05      23.45
H      28.97      32.03      21.25
H      29.37      33.57      19.47
H      26.61      39.02      19.40
H      29.18      35.24      17.73
H      28.44      36.93      16.21
H      22.96      28.37       2.36
H      25.15      28.72       1.44
H      27.51      28.74       0.80
H      29.87      28.53       0.52
H      30.29      27.37       4.57
H      24.69      27.18       6.03
H      26.98      30.33       5.92
H      28.98      29.94       9.63
H      29.38      27.63       9.19
H      26.60      24.84       4.51
H      29.18      25.28       8.62
H      28.43      23.12       7.92
H       4.60      67.92      26.04
H       6.78      68.88      25.88
H       9.14      69.44      25.57
H      11.51      69.58      25.25
H      11.92      65.51      26.28
H       6.33      64.14      26.84
H       8.61      65.81      29.51
H      10.61      62.40      31.04
H      11.02      61.63      28.81
H       8.23      64.28      24.06
H      10.81      60.95      26.50
H      10.06      60.47      24.28
H       4.60      44.19      24.76
H       6.79      43.57      24.00
H       9.14      43.03      23.66
H      11.51      42.68      23.70
H      11.92      45.61      26.72
H       6.33      46.77      27.63
H       8.62      48.26      24.84
H      10.62      51.28      27.04
H      11.02      49.74      28.82
H       8.23      44.30      28.90
H      10.81      48.07      30.57
H      10.06      46.39      32.09
H       4.60      54.95      45.94
H       6.78      54.59      46.86
H       9.14      54.57      47.49
H      11.51      54.78      47.78
H      11.92      55.94      43.73
H       6.33      56.15      42.27
H       8.62      52.99      42.38
H      10.62      53.38      38.67
H      11.02      55.69      39.11
H       8.23      58.48      43.78
H      10.81      58.04      39.68
H      10.06      60.20      40.38
H       0.77      66.61      27.37
H      35.97      68.10      22.23
H      34.07      12.99      21.22
H      33.67      15.59      24.52
H       3.15      66.90      23.92
H      35.62      70.74      25.51
H       1.65      68.52      23.02
H       2.26      64.71      26.37
H      32.03      14.16      21.55
H       0.77      46.00      25.23
H      35.97      40.79      26.50
H      34.08      39.42      26.14
H      33.67      40.99      22.24
H       3.15      42.86      26.70
H      35.61      42.32      22.59
H       1.65      41.27      25.74
H       2.27      46.07      27.38
H      32.03      39.12      24.97
H       0.76      54.46      44.14
H      35.97      58.16      48.02
H      34.08      30.48       0.79
H      33.67      26.32       1.38
H       3.15      57.29      46.13
H      35.61      25.95       0.06
H       1.65      57.26      47.98
H       2.27      56.29      43.00
H      32.03      29.61       1.63
H      19.13      16.72      20.93
H      17.61      15.21      26.07
H      15.71      70.33      27.08
H      15.30      67.73      23.77
H      21.51      16.42      24.38
H      17.25      68.69      22.79
H      20.02      14.79      25.28
H      20.63      18.62      21.95
H      13.67      69.16      26.74
H      19.13      37.31      23.06
H      17.61      42.52      21.79
H      15.72      43.89      22.14
H      15.30      42.33      26.05
H      21.52      40.45      21.59
H      17.25      40.99      25.70
H      20.02      42.04      22.55
H      20.63      37.24      20.91
H      13.67      44.19      23.32
H      19.13      28.87       4.16
H      17.61      25.16       0.29
H      15.71      52.83      47.51
H      15.30      56.99      46.91
H      21.51      26.03       2.17
H      17.25      57.37      48.24
H      20.01      26.06       0.32
H      20.63      27.05       5.30
H      13.67      53.70      46.66
H      27.82      19.43       7.26
H      24.69      19.48      11.98
H      24.73      18.68      14.23
H      28.96      18.81      14.18
H      25.42      22.63       8.57
H      28.90      19.63      11.94
H      25.55      21.81      10.81
H      26.09      20.86       5.77
H      26.17      17.71      16.16
H      27.83      24.12      27.55
H      24.69      28.18      25.15
H      24.74      30.53      24.71
H      28.96      30.42      24.63
H      25.42      23.65      24.13
H      28.91      28.07      25.03
H      25.55      26.00      23.72
H      26.10      22.11      27.07
H      26.17      32.69      24.59
H      27.83      39.35      13.34
H      24.69      35.23      11.04
H      24.73      33.68       9.22
H      28.95      33.67       9.34
H      25.43      36.62      15.46
H      28.90      35.19      11.17
H      25.55      35.08      13.63
H      26.10      39.93      15.32
H      26.15      32.49       7.41
H       9.44      63.89      41.04
H       6.31      63.82      36.31
H       6.36      64.62      34.05
H      10.58      64.52      34.12
H       7.05      60.68      39.72
H      10.53      63.69      36.35
H       7.18      61.50      37.48
H       7.71      62.46      42.53
H       7.79      65.60      32.13
H       9.45      59.20      20.75
H       6.32      55.13      23.17
H       6.36      52.78      23.60
H      10.59      52.89      23.66
H       7.05      59.66      24.18
H      10.53      55.24      23.26
H       7.18      57.31      24.59
H       7.72      61.20      21.24
H       7.79      50.62      23.72
H       9.45      43.97      34.95
H       6.32      48.09      37.27
H       6.37      49.64      39.09
H      10.59      49.65      38.95
H       7.04      46.71      32.84
H      10.53      48.13      37.12
H       7.17      48.24      34.67
H       7.71      43.39      32.97
H       7.80      50.82      40.90
C      27.66      19.42      22.45
C      28.36      20.41      21.75
C      28.47      20.03      20.43
C      27.80      18.80      20.25
C      27.53      18.36      18.93
C      27.96      19.14      17.82
C      28.69      20.33      18.04
C      28.93      20.79      19.34
C      28.68      21.65      22.33
C      28.22      21.93      23.63
C      27.41      21.00      24.32
C      27.19      19.72      23.75
C      26.07      17.60      21.69
C      26.18      16.24      21.99
C      27.52      15.92      22.14
C      28.30      17.07      21.94
C      28.08      14.69      22.53
C      29.47      14.62      22.72
C      30.31      15.75      22.51
C      29.71      16.98      22.14
C      24.78      18.18      21.63
C      23.62      17.39      21.87
C      23.77      16.01      22.11
C      25.05      15.43      22.19
C      27.43      18.23      21.58
C      27.66      37.28      19.96
C      28.36      36.18      19.45
C      28.47      35.22      20.45
C      27.80      35.68      21.59
C      27.53      34.76      22.64
C      27.95      33.40      22.51
C      28.69      33.01      21.38
C      28.93      33.90      20.33
C      28.68      36.06      18.09
C      28.22      37.04      17.20
C      27.41      38.11      17.66
C      27.18      38.25      19.05
C      26.07      37.52      21.91
C      26.18      38.47      22.94
C      27.52      38.76      23.14
C      28.30      38.02      22.25
C      28.08      39.71      24.01
C      29.47      39.91      23.98
C      30.31      39.17      23.11
C      29.71      38.23      22.23
C      24.78      37.18      21.44
C      23.62      37.79      22.01
C      23.77      38.69      23.09
C      25.05      39.05      23.55
C      27.43      37.12      21.42
C      27.67      26.19       5.74
C      28.37      26.30       6.94
C      28.47      27.64       7.27
C      27.80      28.41       6.31
C      27.53      29.78       6.58
C      27.95      30.34       7.82
C      28.69      29.56       8.73
C      28.93      28.20       8.48
C      28.68      25.18       7.73
C      28.22      23.92       7.33
C      27.41      23.78       6.18
C      27.18      24.92       5.35
C      26.07      27.76       4.55
C      26.18      28.18       3.21
C      27.52      28.21       2.86
C      28.30      27.81       3.95
C      28.09      28.49       1.60
C      29.48      28.36       1.45
C      30.31      27.98       2.53
C      29.71      27.69       3.78
C      24.78      27.53       5.08
C      23.63      27.71       4.27
C      23.78      28.20       2.95
C      25.05      28.42       2.41
C      27.43      27.54       5.14
C       9.30      63.90      25.84
C      10.01      62.91      26.54
C      10.11      63.30      27.87
C       9.44      64.52      28.05
C       9.16      64.96      29.37
C       9.59      64.18      30.48
C      10.32      62.99      30.25
C      10.57      62.53      28.95
C      10.32      61.67      25.97
C       9.85      61.38      24.68
C       9.04      62.31      23.98
C       8.81      63.60      24.55
C       7.71      65.72      26.61
C       7.82      67.08      26.30
C       9.16      67.40      26.15
C       9.94      66.25      26.35
C       9.72      68.62      25.76
C      11.11      68.70      25.57
C      11.94      67.57      25.78
C      11.34      66.34      26.16
C       6.42      65.14      26.67
C       5.26      65.93      26.43
C       5.41      67.32      26.18
C       6.69      67.89      26.10
C       9.06      65.09      26.71
C       9.31      46.03      28.34
C      10.01      47.13      28.84
C      10.10      48.09      27.85
C       9.44      47.63      26.70
C       9.16      48.55      25.65
C       9.59      49.90      25.78
C      10.33      50.30      26.92
C      10.57      49.41      27.97
C      10.31      47.25      30.21
C       9.85      46.27      31.10
C       9.04      45.21      30.64
C       8.82      45.06      29.25
C       7.71      45.78      26.38
C       7.82      44.84      25.36
C       9.16      44.55      25.15
C       9.94      45.29      26.04
C       9.72      43.60      24.28
C      11.11      43.40      24.31
C      11.94      44.15      25.18
C      11.34      45.09      26.06
C       6.42      46.12      26.85
C       5.26      45.52      26.29
C       5.41      44.62      25.21
C       6.69      44.26      24.74
C       9.07      46.19      26.87
C       9.30      57.13      42.57
C      10.01      57.02      41.36
C      10.10      55.68      41.02
C       9.43      54.91      41.99
C       9.16      53.54      41.72
C       9.59      52.98      40.48
C      10.32      53.76      39.57
C      10.57      55.12      39.82
C      10.32      58.14      40.57
C       9.85      59.40      40.97
C       9.04      59.53      42.12
C       8.81      58.40      42.95
C       7.71      55.56      43.75
C       7.82      55.14      45.08
C       9.15      55.10      45.44
C       9.93      55.50      44.34
C       9.72      54.82      46.69
C      11.11      54.95      46.85
C      11.94      55.33      45.77
C      11.34      55.62      44.51
C       6.42      55.80      43.22
C       5.26      55.61      44.03
C       5.41      55.12      45.35
C       6.69      54.90      45.89
C       9.06      55.78      43.16
C       2.14      66.64      25.77
C       2.36      67.22      24.50
C       1.47      68.17      23.96
C       0.29      68.55      24.65
C       0.06      67.98      25.94
C       0.99      67.06      26.48
C      36.00      69.32      23.97
C      35.54      68.91      22.70
C      34.41      13.39      22.10
C      33.68      14.41      22.75
C      34.18      14.88      24.00
C      35.32      14.30      24.59
C      32.41      14.75      22.26
C       2.82      65.51      26.20
C       2.14      44.59      26.00
C       2.36      43.20      26.14
C       1.47      42.26      25.58
C       0.29      42.67      24.91
C       0.06      44.07      24.76
C       0.99      45.00      25.29
C      36.00      41.70      24.58
C      35.54      40.80      25.57
C      34.41      39.99      25.36
C      33.68      40.04      24.15
C      34.18      40.88      23.12
C      35.32      41.69      23.33
C      32.41      39.44      24.10
C       2.83      45.53      26.77
C       2.14      55.83      44.98
C       2.37      56.64      46.11
C       1.47      56.62      47.20
C       0.29      55.84      47.19
C       0.06      55.01      46.05
C       0.99      55.01      44.98
C      36.00      56.04      48.19
C      35.55      57.35      48.48
C      34.42      29.52       0.70
C      33.68      28.44       1.26
C      34.18      27.13       1.03
C      35.32      26.91       0.23
C      32.41      28.70       1.79
C       2.82      56.03      43.78
C      20.50      16.68      22.54
C      20.73      16.10      23.81
C      19.83      15.15      24.34
C      18.65      14.77      23.65
C      18.42      15.34      22.36
C      19.35      16.27      21.83
C      17.64      70.11      24.33
C      17.18      70.52      25.60
C      16.05      69.93      26.20
C      15.32      68.90      25.55
C      15.81      68.44      24.30
C      16.96      69.03      23.71
C      14.05      68.57      26.04
C      21.19      17.81      22.11
C      20.50      38.72      22.29
C      20.73      40.11      22.16
C      19.83      41.05      22.71
C      18.65      40.64      23.38
C      18.42      39.24      23.53
C      19.35      38.31      23.00
C      17.64      41.61      23.71
C      17.18      42.51      22.72
C      16.05      43.32      22.93
C      15.31      43.27      24.14
C      15.81      42.43      25.16
C      16.96      41.62      24.96
C      14.05      43.87      24.19
C      21.19      37.78      21.52
C      20.50      27.50       3.32
C      20.73      26.68       2.19
C      19.83      26.69       1.10
C      18.65      27.48       1.11
C      18.42      28.31       2.25
C      19.35      28.32       3.32
C      17.64      27.28       0.11
C      17.18      54.02      48.42
C      16.05      53.80      47.61
C      15.31      54.87      47.05
C      15.81      56.18      47.27
C      16.95      56.40      48.07
C      14.05      54.61      46.50
C      21.19      27.30       4.52
C      26.64      21.13       7.71
C      25.97      21.79       8.76
C      26.04      21.30      10.08
C      26.77      20.12      10.39
C      27.44      19.44       9.33
C      27.36      19.95       8.01
C      26.79      19.63      11.73
C      25.59      19.34      12.43
C      25.62      18.85      13.75
C      26.85      18.64      14.43
C      28.05      18.92      13.72
C      28.02      19.41      12.40
C      26.87      18.29      15.78
C      26.50      21.52       6.38
C      26.65      23.66      25.86
C      25.98      24.23      24.76
C      26.04      25.62      24.53
C      26.77      26.48      25.39
C      27.44      25.91      26.50
C      27.37      24.51      26.73
C      26.79      27.89      25.14
C      25.60      28.64      25.04
C      25.62      30.03      24.81
C      26.85      30.72      24.65
C      28.05      29.97      24.75
C      28.02      28.58      24.99
C      26.87      32.06      24.27
C      26.51      22.31      26.19
C      26.65      38.11      14.59
C      25.98      36.87      14.64
C      26.04      35.97      13.55
C      26.77      36.29      12.38
C      27.44      37.55      12.32
C      27.36      38.44      13.41
C      26.79      35.37      11.28
C      25.59      34.91      10.69
C      25.62      34.01       9.60
C      26.85      33.53       9.08
C      28.04      34.00       9.67
C      28.02      34.90      10.75
C      26.86      32.54       8.10
C      26.51      39.07      15.59
C       8.26      62.19      40.59
C       7.60      61.52      39.53
C       7.67      62.01      38.21
C       8.39      63.19      37.91
C       9.06      63.87      38.96
C       8.98      63.37      40.28
C       8.42      63.68      36.56
C       7.22      63.97      35.86
C       7.25      64.46      34.54
C       8.47      64.67      33.87
C       9.67      64.40      34.57
C       9.64      63.91      35.89
C       8.49      65.02      32.52
C       8.12      61.80      41.91
C       8.27      59.65      22.45
C       7.61      59.08      23.55
C       7.67      57.69      23.78
C       8.40      56.83      22.92
C       9.06      57.40      21.80
C       8.99      58.80      21.58
C       8.42      55.42      23.17
C       7.22      54.67      23.27
C       7.25      53.28      23.50
C       8.48      52.59      23.65
C       9.68      53.34      23.54
C       9.65      54.73      23.30
C       8.50      51.25      24.03
C       8.12      61.00      22.12
C       8.27      45.21      33.71
C       7.60      46.45      33.66
C       7.67      47.35      34.74
C       8.40      47.03      35.92
C       9.06      45.78      35.98
C       8.99      44.88      34.88
C       8.42      47.95      37.01
C       7.22      48.41      37.62
C       7.25      49.31      38.70
C       8.48      49.79      39.22
C       9.68      49.32      38.62
C       9.65      48.42      37.54
C       8.50      50.78      40.19
C       8.12      44.26      32.71
N      31.61      15.61      22.80
N      26.84      21.28      25.49
N      27.65      18.96      16.55
N      22.44      18.00      21.87
N      31.61      39.48      23.09
N      26.84      38.99      16.83
N      27.65      32.40      23.31
N      22.44      37.49      21.48
N      31.61      27.80       2.27
N      26.84      22.63       5.83
N      27.64      31.54       8.29
N      22.44      27.42       4.79
N      13.25      67.70      25.50
N       8.46      62.03      22.81
N       9.28      64.36      31.75
N       4.08      65.33      26.43
N      13.25      43.84      25.20
N       8.46      44.34      31.47
N       9.28      50.91      24.98
N       4.08      45.82      26.81
N      13.25      55.51      46.03
N       8.46      60.68      42.46
N       9.28      51.78      40.01
N       4.08      55.91      43.51
N      35.58      68.25      26.63
N      35.58      44.53      24.18
N      35.57      54.28      45.93
N      17.22      15.07      21.67
N      17.21      38.78      24.11
N      17.21      29.04       2.36
N      28.12      18.23       9.60
N      28.12      26.75      27.42
N      28.12      37.92      11.13
N       9.73      65.09      38.70
N       9.74      56.57      20.88
N       9.75      45.40      37.16
O      35.79      68.76      27.76
O      34.88      67.21      26.78
O      35.79      45.26      23.18
O      34.88      45.18      25.01
O      35.79      53.05      45.80
O      34.88      54.68      44.96
O      17.43      14.57      20.54
O      16.52      16.11      21.53
O      17.43      38.05      25.11
O      16.52      38.14      23.28
O      17.43      30.27       2.49
O      16.52      28.65       3.33
O      29.34      18.31       9.30
O      27.61      17.27       8.98
O      29.34      26.45      27.50
O      27.61      26.69      28.57
O      29.34      38.14      11.35
O      27.61      38.94      10.60
O      10.95      65.01      39.00
O       9.22      66.05      39.32
O      10.96      56.87      20.79
O       9.23      56.62      19.74
O      10.96      45.18      36.94
O       9.24      44.38      37.69
