13

C       1.62      13.27       8.53
C       0.83      12.76       9.56
C       0.67      13.51      10.71
C       1.26      14.72      10.76
C       2.03      15.18       9.70
C      -0.16      12.95      11.84
N       2.22      14.45       8.60
H       1.74      12.74       7.75
H       0.41      11.92       9.47
O      -1.02      12.09      11.60
O       0.05      13.38      13.01
H       1.15      15.27      11.53
H       2.43      16.04       9.76
