13

N       2.68      -2.86      24.62
C       1.39      -2.84      24.92
C       0.77      -1.80      25.58
C       1.50      -0.70      25.94
C       2.84      -0.69      25.60
H       0.86      -3.58      24.65
H      -0.16      -1.85      25.78
C       3.38      -1.78      24.95
H       4.31      -1.76      24.71
C       0.89       0.45      26.68
H       3.39       0.06      25.81
O      -0.34       0.44      26.86
O       1.69       1.35      27.09
