13

N       6.20       2.32      10.27
C       5.24       2.68      11.14
C       4.57       1.78      11.92
C       4.88       0.44      11.82
C       5.82       0.04      10.89
C       6.45       1.02      10.14
C       4.20      -0.57      12.70
H       5.02       3.60      11.21
H       3.89       2.07      12.52
H       6.02      -0.87      10.76
H       7.10       0.75       9.50
O       3.06      -0.31      13.12
O       4.80      -1.64      12.96
