13

H       7.47      -0.45      16.94
N       6.77       2.47      18.12
C       5.47       2.45      17.83
H       8.39       1.37      18.03
C       4.85       1.41      17.17
H       4.94       3.19      18.09
H       3.93       1.46      16.96
O       3.74      -0.83      15.89
O       5.77      -1.74      15.66
C       5.59       0.31      16.80
C       6.93       0.30      17.15
C       7.47       1.39      17.80
C       4.98      -0.84      16.07
