13

H       3.14       6.33      17.28
H       4.28       7.86      15.98
H       2.15      10.81      17.74
H       1.07       9.18      18.99
C       2.92       7.25      17.36
N       1.97       7.61      18.23
C       3.60       8.16      16.58
C       3.29       9.49      16.68
C       1.72       8.91      18.35
C       2.35       9.89      17.61
C       3.97      10.51      15.80
O       5.11      10.24      15.37
O       3.37      11.57      15.54
