13

N       6.30       5.80       5.65
C       5.70       6.99       5.72
C       4.92       7.49       4.69
H       5.82       7.51       6.50
C       5.34       5.53       3.49
C       6.11       5.07       4.55
H       6.51       4.21       4.49
H       4.49       8.34       4.78
C       4.75       6.75       3.54
C       3.92       7.30       2.41
H       5.23       4.99       2.72
O       3.06       8.16       2.65
O       4.13       6.87       1.23
