22

Mg       8.40      16.15      11.24
Mg       8.40      17.79       8.39
Mg       8.40      14.50       8.39
O       9.86      17.29       6.99
O       9.86      17.61      11.51
O       9.86      13.54       9.53
O       8.40      16.15       9.34
C      10.26      13.77      10.72
C      10.26      18.53      10.72
C      10.26      16.15       6.59
C       6.54      16.15       6.59
C       6.54      18.53      10.72
C       6.54      13.77      10.72
O       9.86      14.68      11.51
O       9.86      18.75       9.53
O       9.86      15.00       6.99
O       6.94      17.29       6.99
O       6.94      17.61      11.51
O       6.94      13.54       9.53
O       6.94      14.68      11.51
O       6.94      18.75       9.53
O       6.94      15.00       6.99
