22

Mg       8.40       0.00      16.79
Mg       8.40      -1.64      19.64
Mg       8.40       1.64      19.64
O       9.86      -1.46      16.52
O       6.94      -2.61      18.50
O       9.86      -1.14      21.04
C      10.26       2.38      17.31
O       6.94       1.14      21.04
O       8.40       0.00      18.69
O       9.86       2.61      18.50
C      10.26      -2.38      17.31
C      10.26       0.00      21.44
C       6.54       0.00      21.44
C       6.54      -2.38      17.31
C       6.54       2.38      17.31
O       9.86       1.46      16.52
O       9.86      -2.61      18.50
O       9.86       1.14      21.04
O       6.94      -1.14      21.04
O       6.94      -1.46      16.52
O       6.94       2.61      18.50
O       6.94       1.46      16.52
