20

H       3.46      25.94      14.60
H       0.95      25.85      14.64
H       3.46      29.86      13.30
H       0.95      29.94      13.26
C       2.86      26.79      14.31
C       1.47      26.75      14.32
C       2.86      29.00      13.59
C       1.47      29.04      13.58
H      -3.46      29.85      14.62
H      -0.95      29.94      14.66
H      -3.46      25.94      13.28
C      -0.74      27.90      13.95
C       0.74      27.90      13.95
H      -0.95      25.86      13.24
N       3.54      27.90      13.95
N      -3.54      27.90      13.95
C      -2.86      29.00      14.32
C      -1.47      29.03      14.33
C      -2.86      26.79      13.58
C      -1.47      26.76      13.57
