48

H      24.88      10.90       4.85
H      23.13       9.14       4.83
H      23.08       3.03      10.90
H      23.08       4.78       9.13
H      20.93       8.74       5.23
H      22.68       6.97       8.73
H      19.17       5.22       6.97
H      17.00       4.85       3.02
H      18.76       4.83       4.77
C      20.93       7.97       5.99
C      21.91       6.97       7.96
H      24.86      10.91       9.13
H      23.08       9.17       9.14
C      19.94       5.99       6.97
H      16.99       9.13       3.04
C      24.48      10.52       5.78
C      23.49       9.54       5.78
H      18.73       9.14       4.82
C      22.15       3.43      10.52
C      22.14       4.41       9.53
H      18.80       3.04      10.93
H      18.78       4.80       9.17
O      26.48      12.48       8.11
C      26.05      12.08       6.98
C      24.98      11.02       6.99
C      22.97       9.02       6.99
C      21.93       7.98       6.98
O      19.79       1.46      12.49
C      18.36       5.78       4.41
C      17.38       5.78       3.43
O      15.41       8.11       1.43
C      24.48      10.52       8.20
C      23.49       9.53       8.19
O      26.44      12.49       5.84
C      20.93       5.97       7.97
C      20.93       4.92       9.02
C      20.94       2.92      11.02
C      20.93       1.87      12.09
C      18.37       8.19       4.41
C      17.39       8.20       3.43
O      15.41       5.84       1.46
O      22.06       1.46      12.51
C      19.73       3.43      10.52
C      19.73       4.41       9.53
C      15.82       6.98       1.86
C      16.88       6.99       2.92
C      18.88       6.99       4.93
C      19.93       6.98       5.98
