48

H      24.88      16.99      23.04
H      23.13      18.75      23.06
H      20.93      19.16      22.67
H      23.08      24.86      16.99
H      23.08      23.12      18.77
H      22.68      20.92      19.16
H      19.17      22.68      20.92
H      17.00      23.04      24.88
H      18.76      23.06      23.12
C      20.93      19.93      21.90
H      24.86      16.98      18.76
C      21.91      20.92      19.93
H      23.08      18.73      18.76
C      24.48      17.38      22.11
C      19.94      21.91      20.92
C      23.49      18.36      22.12
H      16.99      18.76      24.85
H      18.73      18.76      23.08
C      22.15      24.47      17.38
C      22.14      23.48      18.36
H      18.80      24.86      16.97
H      18.78      23.09      18.72
C      17.38      22.11      24.47
C      18.36      22.12      23.48
C      26.05      15.82      20.92
C      24.98      16.87      20.90
C      22.97      18.87      20.91
O      26.48      15.41      19.79
C      21.93      19.92      20.92
O      19.79      26.44      15.41
C      24.48      17.38      19.70
C      23.49      18.36      19.70
O      15.41      19.79      26.46
O      26.44      15.40      22.06
C      20.93      26.03      15.81
C      20.94      24.97      16.87
C      20.93      22.97      18.88
C      20.93      21.92      19.92
O      15.41      22.06      26.44
O      22.06      26.43      15.38
C      18.37      19.70      23.48
C      17.39      19.70      24.47
C      19.73      24.47      17.38
C      19.73      23.49      18.36
C      15.82      20.92      26.04
C      16.88      20.91      24.98
C      18.88      20.91      22.97
C      19.93      20.92      21.92
