20

H      15.91      17.41       0.66
H      15.99      14.90       0.70
H      11.99      17.41      -0.66
H      11.90      14.90      -0.70
H      15.91      10.48      -0.66
H      15.99      12.99      -0.70
H      11.99      10.48       0.66
H      11.90      12.99       0.70
C      13.95      14.69       0.00
C      13.95      13.21       0.00
N      13.95      17.49      -0.00
N      13.95      10.41       0.00
C      15.05      16.80       0.36
C      15.09      15.41       0.38
C      12.85      16.80      -0.36
C      12.81      15.41      -0.38
C      15.05      11.09      -0.36
C      15.09      12.48      -0.38
C      12.85      11.09       0.36
C      12.81      12.48       0.38
