48

C       5.78      24.47      17.37
C       5.78      23.48      18.35
H       9.18      18.78      23.09
O       5.84      26.44      15.40
H      10.93      18.80      24.85
C       1.87      15.80      20.93
C       2.93      16.87      20.94
C       4.93      18.87      20.93
C       5.98      19.92      20.93
C       6.98      26.03      15.82
C       6.99      24.97      16.87
C       6.98      22.97      18.87
C       6.98      21.92      19.92
C      10.53      22.15      24.46
C       9.54      22.14      23.48
H       9.13      24.85      16.98
H       9.13      23.08      18.72
C       3.43      17.37      19.73
C       4.41      18.36      19.73
C      10.53      19.73      24.47
C       9.54      19.73      23.48
H       6.98      19.17      22.68
H       5.22      20.92      19.17
C      11.03      20.94      24.97
C       9.03      20.93      22.97
C       7.98      20.93      21.92
C      12.10      20.93      26.02
H       8.73      22.68      20.92
C       6.98      19.94      21.91
C       8.20      24.47      17.38
C       8.19      23.48      18.36
C       5.99      20.92      19.94
C       7.96      21.91      20.92
H       3.04      16.99      23.08
H       4.78      18.76      23.08
H       4.85      24.87      16.99
H       4.83      23.12      18.75
O       1.46      15.41      19.78
H       9.13      23.08      23.12
O       8.11      26.46      15.41
H      10.91      23.08      24.86
C       3.44      17.37      22.15
O      12.49      19.78      26.43
H       3.05      16.97      18.80
H       4.81      18.72      18.78
O       1.47      15.37      22.05
O      12.53      22.05      26.43
C       4.42      18.36      22.14
