22

C      20.98       9.99      13.55
O      18.07      10.85      15.47
C      21.28       8.71      11.40
H      22.05      10.13      13.66
C      23.48       8.15      10.48
H      21.18       6.78       8.53
H      19.67       7.89      10.16
C      20.45       9.30      12.42
H      17.16       9.63      13.46
H      18.51       8.71      11.58
N      18.81      10.37      14.47
N      22.91       7.46       9.44
C      20.17      10.50      14.54
C      19.02       9.21      12.40
H      23.22       9.30      12.23
C      18.24       9.72      13.40
H      24.57       8.16      10.47
C      20.74       7.99      10.29
H      20.53      11.02      15.42
O      23.70       6.86       8.56
C      21.54       7.38       9.36
C      22.70       8.77      11.44
