22

O       9.35      16.14       7.54
H      10.02      17.35       5.50
C      12.85      21.47       6.36
C      10.39      17.87       6.38
C      12.92      21.42       8.76
C      11.20      18.99       8.76
H      12.53      21.11       5.39
C      13.75      22.51       8.75
H      12.66      21.01       9.73
C      11.13      19.03       6.36
H      10.18      17.26       9.63
H      11.35      19.46       5.39
N      10.05      17.27       7.56
H      14.06      23.08       5.50
H      14.20      22.96       9.63
C      11.59      19.65       7.56
N      14.14      23.08       7.57
C      12.42      20.83       7.56
C      13.69      22.56       6.38
O      14.97      24.13       7.54
H      11.50      19.37       9.73
C      10.46      17.83       8.75
