22

H      -2.98      19.47       4.38
H       3.09      19.14       3.14
H      -0.94      21.99       8.08
C      -2.46      20.00       5.17
H       1.74      20.06       5.03
H       0.58      20.88       6.45
C      -0.73      18.78       3.06
C       2.01      19.05       3.20
C      -0.50      20.78       6.32
C      -3.23      20.62       6.12
H      -1.80      18.64       2.95
N       1.44      18.40       2.13
N      -2.67      21.31       7.16
C      -1.30      21.39       7.25
H      -0.28      17.75       1.19
H      -4.32      20.61       6.14
C       1.22      19.56       4.21
C      -1.03      20.06       5.21
O      -3.46      21.91       8.05
C      -0.20      19.47       4.19
C       0.07      18.27       2.07
O       2.18      17.92       1.13
