28

Sr       9.77      15.06       9.53
Sr       6.14      13.99      10.34
Sr      16.26       9.29       9.53
Sr      12.63      10.37      10.34
C      13.36       7.80       8.25
C       6.86      16.56       8.26
Cl      11.64      12.96      10.08
Cl       5.14      11.40      10.08
O      10.74      16.59      11.14
O       6.00      16.04       9.04
O       8.11      16.64       8.46
O       6.68      13.87      12.84
O       9.49      13.88       7.21
O       7.83      13.52       8.66
O       8.42      14.21      11.47
O      13.17      10.48      12.84
O      15.99      10.47       7.21
O      14.32      10.83       8.66
O      14.91      10.14      11.47
O      17.23       7.75      11.14
O      12.50       8.32       9.04
O      14.60       7.72       8.46
C      14.42      10.50      12.61
C      14.84      10.92       7.48
C      16.80       6.66      11.68
C       7.93      13.86      12.61
C       8.34      13.43       7.48
C      10.33      17.68      11.68
