48

H      25.57      15.42       3.28
H      28.24      17.39      -1.67
H      25.05      18.52      -4.34
H      24.25      17.86      -0.17
H      28.92      16.36      -3.56
H      30.56      16.51      -5.43
H      28.30      19.73      -7.17
H      26.69      19.62      -5.28
H      22.97      17.76      -4.52
H      20.57      18.27      -4.83
H      20.34      19.82      -0.85
H      22.76      19.35      -0.51
O      18.42      19.34      -4.26
O      18.26      19.91      -2.05
O      26.87      15.68       5.43
O      28.62      17.08       5.26
O      31.58      17.50      -7.45
O      30.33      19.11      -8.43
C      18.90      19.47      -3.08
C      27.61      16.44       4.75
C      27.35      16.66       3.29
C      28.18      17.49       2.52
C      27.87      17.75       1.19
C      26.70      17.22       0.61
C      25.89      16.37       1.38
C      26.21      16.08       2.70
C      26.29      17.58      -0.77
C      27.19      17.62      -1.84
C      26.75      17.96      -3.14
C      25.40      18.26      -3.34
C      24.48      18.24      -2.28
C      24.94      17.90      -1.00
C      27.70      18.00      -4.27
C      28.80      17.11      -4.34
C      29.71      17.19      -5.39
C      29.54      18.14      -6.41
C      28.43      19.00      -6.37
C      27.52      18.93      -5.32
C      30.53      18.23      -7.49
C      23.05      18.54      -2.50
C      22.42      18.24      -3.72
C      21.07      18.52      -3.90
C      20.32      19.10      -2.87
C      20.94      19.38      -1.64
C      22.29      19.11      -1.46
H      29.05      17.94       2.99
H      28.50      18.43       0.61
H      25.00      15.93       0.93
