48

C       3.62      22.34       9.64
H       4.67      20.47       5.40
H       9.03      22.16       3.73
H       7.27      23.77       4.47
O       3.06      31.01       2.90
O       0.82      30.61       3.12
H       4.88      24.63       4.03
H       2.31      25.47       7.39
H       4.61      21.84       7.27
H       5.06      26.84       4.10
H       4.42      29.00       3.08
H       0.46      28.61       4.70
H       1.10      26.46       5.74
H       0.91      24.10       8.55
H       0.01      23.23      10.68
H       3.71      21.23      11.48
H       4.64      22.06       9.35
H       6.40      18.88       4.65
C       1.23      21.71      12.51
O       0.01      22.02      12.72
O       1.99      21.05      13.30
O       8.69      18.20       3.88
O      10.06      19.93       3.46
C       8.91      19.45       3.81
C       7.83      20.42       4.15
C       8.06      21.80       4.08
C       7.08      22.70       4.49
C       5.85      22.23       4.99
C       5.62      20.84       5.03
C       2.05      30.27       3.24
C       6.59      19.95       4.61
C       4.87      23.15       5.59
C       4.48      24.36       5.01
C       3.53      25.20       5.63
C       2.99      24.80       6.87
C       3.38      23.60       7.49
C       4.31      22.78       6.82
C       3.13      26.47       5.00
C       4.05      27.21       4.22
C       2.39      28.94       3.80
C       1.46      28.21       4.56
C       3.69      28.42       3.64
C       1.83      27.00       5.15
C       2.85      23.16       8.79
C       1.54      23.49       9.19
C       1.03      23.00      10.38
C       1.80      22.19      11.22
C       3.11      21.86      10.84
