49

C       5.25       1.54      16.76
C       4.72       2.84      16.69
C       8.29       1.92      14.53
C       8.45       2.43      13.22
C       9.54       2.08      12.44
C      10.55       1.23      12.97
C      10.42       0.74      14.28
C       9.29       1.06      15.04
C       4.48       0.52      17.50
C       5.11      -0.51      18.23
C       4.36      -1.42      18.96
C       2.96      -1.34      18.97
C       2.32      -0.31      18.26
C       3.07       0.60      17.54
O       2.78      -3.31      20.25
O       0.87      -2.23      19.63
O       1.40       8.97      16.52
H       3.81       7.64      13.66
H       5.18       5.57      13.81
H       3.97       5.10      17.92
C       2.14      -2.36      19.68
H       7.02       4.31      14.66
H       6.84       0.25      16.10
H       3.80       3.07      17.21
H       7.68       3.07      12.81
H       9.64       2.45      11.43
C      11.68       0.89      12.12
H       9.20       0.66      16.04
H      11.18       0.09      14.69
H       6.20      -0.58      18.24
H       4.84      -2.20      19.55
H       2.56       1.39      16.98
H       1.24      -0.25      18.28
H       2.56       7.11      17.74
O      11.67       1.06      10.87
O      12.77       0.39      12.73
H      13.48       0.32      12.03
O       2.23       9.34      14.45
C       2.17       8.68      15.57
C       3.09       7.51      15.68
C       3.86       7.08      14.59
C       4.64       5.92      14.68
C       4.67       5.17      15.87
C       3.94       5.64      16.98
C       3.15       6.79      16.89
C       5.34       3.85      15.94
C       6.51       3.54      15.24
C       7.08       2.25      15.31
C       6.45       1.26      16.09
