49

H      15.89      13.50      24.20
C      15.29      11.71      24.30
C       7.54       2.20      27.75
C       8.72       3.11      27.87
C       9.15       3.88      26.77
C      10.31       4.65      26.86
H       8.59       3.83      25.85
C      11.06       4.68      28.05
C      10.60       3.94      29.16
H      11.14       3.97      30.10
H      10.66       5.19      25.99
C      13.98       7.10      27.49
C      14.97       6.46      28.26
H      13.14       7.70      25.00
H      15.98       6.86      28.27
H      16.13      11.21      26.86
H      15.58       9.22      28.21
C      14.12       9.57      24.63
C      14.96      10.57      25.14
C      15.47      10.44      26.45
H      11.91       7.03      26.84
C      15.16       9.32      27.21
C      14.30       8.31      26.71
C      13.78       8.47      25.41
C      15.72       4.49      29.67
C      16.74       5.12      30.40
H      16.82       6.21      30.42
C      17.64       4.37      31.15
C      15.63       3.08      29.70
H      14.85       2.57      29.13
C      16.54       2.33      30.43
H      13.17       3.81      29.38
C      17.55       2.97      31.16
C       9.45       3.16      29.07
C      12.38       5.35      28.11
H       9.12       2.58      29.92
O      19.46       2.79      32.53
O      18.45       0.88      31.81
C      12.69       6.53      27.42
H      13.73       9.67      23.61
O       7.26       1.43      28.72
C      14.69       5.26      28.93
C      13.39       4.74      28.86
H      18.42       4.84      31.74
H      16.48       1.25      30.45
C      18.56       2.15      31.89
O      15.09      11.71      23.05
O      15.82      12.79      24.90
O       6.89       2.25      26.64
