48

O      -0.03       5.80      23.81
O      -2.04       4.92      23.18
C      -2.16      14.08      33.26
C      -8.95       3.24      32.70
C      -7.89       4.22      32.35
C      -8.12       5.60      32.42
C      -7.14       6.51      32.01
C      -5.92       6.04      31.50
C      -5.68       4.66      31.46
O     -10.10       3.71      33.07
C      -6.64       3.76      31.89
C      -4.94       6.96      30.89
C      -4.56       8.18      31.48
C      -3.61       9.02      30.86
C      -3.07       8.63      29.62
O      -8.72       2.00      32.61
C      -4.37       6.60      29.66
C      -4.14      11.02      32.27
C      -3.79      12.24      32.85
C      -2.49      12.75      32.70
C      -3.21      10.29      31.50
C      -1.55      12.02      31.95
C      -1.91      10.82      31.35
C      -3.45       7.42      29.00
C      -2.91       6.99      27.70
C      -1.60       7.31      27.31
C      -1.08       6.82      26.12
C      -3.16       5.68      25.66
C      -3.68       6.16      26.86
C      -1.86       6.01      25.28
O      -3.17      14.81      33.60
O      -0.93      14.43      33.38
H      -9.09       5.96      32.78
H      -7.35       7.58      32.02
H      -4.73       4.29      31.09
H      -6.44       2.69      31.86
H      -4.96       8.44      32.46
H      -2.39       9.30      29.10
H      -4.67       5.65      29.22
H      -5.15      10.65      32.38
H      -4.52      12.81      33.41
H      -0.55      12.42      31.81
H      -1.18      10.28      30.76
H      -0.97       7.92      27.95
H      -0.06       7.04      25.83
H      -3.76       5.04      25.01
H      -4.70       5.88      27.13
C      -1.28       5.53      23.99
