48

H       8.48     -11.22      20.29
H       9.32     -13.80      16.93
H       5.68     -11.51      17.05
H      10.69     -11.04      20.22
H      12.84     -11.67      21.25
H      12.46     -15.64      19.63
H      10.31     -15.01      18.58
H       7.96     -15.20      15.78
O       2.06      -7.40      20.46
C       3.31      -7.19      20.52
C       4.27      -8.27      20.18
C       5.65      -8.05      20.24
C       6.55      -9.03      19.84
C       6.08     -10.26      19.33
C       4.69     -10.49      19.30
C       3.80      -9.51      19.72
C       6.99     -11.25      18.73
C       8.21     -11.63      19.32
C       9.05     -12.57      18.69
C       8.66     -13.12      17.45
C       7.45     -12.73      16.84
C       6.63     -11.81      17.50
C      10.32     -12.97      19.32
C      11.06     -12.05      20.10
C      12.27     -12.40      20.68
C      12.79     -13.70      20.53
C      12.06     -14.64      19.77
C      10.86     -14.27      19.17
C       7.01     -13.27      15.54
C       7.34     -14.58      15.14
C       6.85     -15.10      13.95
C       6.03     -14.33      13.12
C       5.70     -13.02      13.49
C       6.19     -12.50      14.69
H       7.08     -16.11      13.66
O       5.85     -16.14      11.63
O       4.88     -14.16      11.04
H       5.06     -12.42      12.85
H       5.91     -11.48      14.97
C       5.54     -14.90      11.83
C      14.12     -14.04      21.10
O       3.79      -6.04      20.86
O      14.84     -13.03      21.46
O      14.46     -15.27      21.20
H       6.01      -7.08      20.59
H       7.62      -8.83      19.85
H       4.31     -11.44      18.93
H       2.73      -9.71      19.69
