48

C      10.64      17.48       0.34
C       2.09      18.33      -8.92
O      14.15      24.94      -8.27
O      12.43      26.31      -8.73
H      10.19      25.29      -8.44
H       8.58      23.55      -7.68
H      11.88      20.94      -6.75
H      13.46      22.65      -7.52
H       7.72      21.16      -8.12
H       6.87      18.58      -4.77
H      10.51      20.88      -4.88
H       5.50      21.34      -8.04
H       3.35      20.70      -9.08
C      12.91      25.16      -8.37
O       1.35      19.34      -9.26
O       1.74      17.10      -9.04
C      11.93      24.10      -8.02
C      10.55      24.33      -8.09
C       9.65      23.35      -7.67
C      10.11      22.13      -7.16
C      11.50      21.89      -7.13
C      12.40      22.86      -7.56
C       9.20      21.14      -6.56
C       7.98      20.75      -7.15
C       7.15      19.81      -6.52
C       7.54      19.27      -5.28
C       8.74      19.65      -4.67
C       9.56      20.58      -5.33
C       5.87      19.40      -7.16
C       5.14      20.33      -7.93
C       3.93      19.97      -8.51
C       3.41      18.67      -8.37
C       4.15      17.73      -7.61
C       5.35      18.10      -7.01
C       9.18      19.11      -3.37
C       8.86      17.80      -2.97
H       3.75      16.73      -7.47
C       9.35      17.28      -1.78
C      10.00      19.89      -2.52
C      10.48      19.37      -1.32
C      10.16      18.06      -0.94
H       5.89      17.37      -6.42
O      10.38      16.24       0.53
O      11.25      18.25       1.16
H       8.25      17.17      -3.62
H       9.13      16.26      -1.49
H      11.12      19.97      -0.67
H      10.28      20.90      -2.80
