48

C      22.09      10.18       7.16
C      21.85      11.57       7.13
C      22.82      12.46       7.57
C      21.10       9.26       6.55
C      20.72       8.05       7.14
C      19.78       7.21       6.52
C      19.23       7.60       5.28
C      19.62       8.81       4.66
C      20.54       9.63       5.32
C      19.38       5.94       7.16
C      20.30       5.21       7.94
C      19.96       4.00       8.53
C      18.66       3.47       8.38
H      23.52       8.65       7.67
H      20.89      11.95       6.76
H      22.61      13.53       7.54
H      21.13       7.78       8.11
H      18.55       6.93       4.76
H      20.84      10.58       4.88
C      18.08       5.40       7.01
C      19.08       9.25       3.36
C      17.77       8.93       2.96
C      19.86      10.07       2.51
H      21.32       5.58       8.05
H      17.34       5.94       6.42
H      20.69       3.43       9.10
H      16.72       3.80       7.49
H      17.14       8.32       3.60
H      20.87      10.35       2.79
C      19.34      10.54       1.31
H      16.24       9.20       1.47
H      19.95      11.18       0.66
C      17.46      10.70      -0.36
C      18.04      10.22       0.93
O      19.33       1.42       9.31
O      17.09       1.79       9.04
O      24.91      14.21       8.27
O      26.28      12.49       8.74
H      25.26      10.26       8.43
C      18.32       2.14       8.94
O      16.21      10.44      -0.54
C      17.72       4.20       7.62
O      18.22      11.29      -1.19
C      17.26       9.42       1.77
C      25.13      12.97       8.37
C      24.06      12.00       8.02
C      24.29      10.61       8.08
C      23.31       9.72       7.67
