78

Mn       2.01       8.25       7.67
Mn       4.89       7.58       5.17
Mn       2.53       9.77       4.52
Mn       5.52      16.74      10.88
Mn       2.36      19.51       9.75
Mn       3.29      17.77      12.59
P       5.18      10.41       3.41
P       4.14       9.73       7.63
P       2.45       6.23       5.52
P       5.67      16.20      13.64
P       3.00      16.68       9.00
P       4.77      20.22      10.91
H       3.99       9.25       1.05
H       3.17       7.86       1.81
H       0.74      11.09       0.82
H       2.48      11.22       0.40
H       2.94      12.50       7.74
H       1.78      12.35       6.40
H       5.38      11.54      10.25
H       1.97      12.30      10.07
H       4.71       4.83       9.55
H       3.63       6.28       9.74
H       3.93       4.26       6.06
H       4.81       3.67       7.50
H       2.65      18.85      15.20
H       1.84      17.46      15.97
H       3.38      15.49      16.59
H       5.12      15.63      16.18
H       5.25      14.01      10.75
H       4.34      13.65       9.24
H       5.59      14.35       7.05
H       2.30      14.79       7.21
H       2.98      20.71       7.08
H       1.71       3.70       7.25
H       1.60       4.81       9.49
H       2.84      22.64      10.82
C       1.50       9.48       2.70
C       3.06       8.65       1.05
C       1.61      10.54       0.45
C       4.94      11.25       7.74
C       1.89      12.66       7.44
C       0.95      12.26       9.67
C       2.96       6.40       7.26
C       3.71       5.28       9.29
C       3.85       4.11       7.15
C       4.29      17.18      14.29
C       2.76      18.07      15.95
C       4.24      16.17      16.55
C       1.56      15.70       9.49
C       5.34      13.65       9.72
C       1.50      14.14       7.59
C       3.82      20.58       9.47
C       2.90      21.70       7.55
C       2.82      22.83       9.74
N       1.94       9.50       1.45
N       1.05      11.78       8.28
N       3.62       5.42       7.82
N       3.87      17.19      15.53
N       1.22      14.55       8.98
N       2.92      21.53       9.03
O       4.24      11.30       2.66
O       0.96      10.98       4.63
O       4.32       9.15       3.98
O       3.36       9.34       8.91
O       5.10       8.52       7.22
O       3.05       9.86       6.51
O       1.37       5.18       5.58
O       3.66       6.11       4.58
O       1.85       7.68       5.30
O       1.55      15.52      14.61
O       4.93      15.44      12.51
O       1.35      17.41      12.81
O       3.98      16.03       8.07
O       2.43      18.06       8.53
O       3.52      16.89      10.50
O       5.59      21.31      11.49
O       3.58      19.58      11.75
O       5.61      18.98      10.37
