70

C      25.33      21.36       3.59
C      27.68      21.82       3.36
C      26.12      27.87      -2.55
Si      28.78      24.41       2.75
C      29.26      27.34       9.14
O      30.16      29.99      12.38
O      31.56      31.06      10.99
H      25.88      24.37       2.43
C      29.69      26.69       6.73
O      21.53      17.01       6.28
C      30.78      28.63       7.79
H      27.36      24.94       5.25
H      23.63      18.09       6.16
O      20.00      17.74       4.81
C      27.93      26.38      -0.82
H      31.20      28.80       6.96
C      25.46      30.06      -3.31
H      26.85      20.08       4.05
H      31.17      25.60       4.03
O      24.64      32.15      -4.21
O      24.41      30.26      -5.40
H      27.75      26.24       7.16
H      28.59      21.54       3.45
H      27.61      27.08       2.83
C      24.82      30.95      -4.40
H      28.01      26.19      -1.75
C      27.39      23.09       2.88
H      26.79      30.18      -0.33
C      21.13      17.72       5.29
H      26.19      26.94      -2.69
C      23.46      18.70       5.46
H      26.68      28.55       1.26
C      22.96      20.50       3.39
C      24.20      20.49       4.03
H      22.79      21.11       2.69
H      28.64      26.62       9.22
H      25.29      19.60       5.49
H      28.94      24.72      -0.19
C      24.45      19.60       5.06
C      26.58      28.43      -1.36
C      30.75      30.12      11.31
H      25.25      28.31      -4.34
C      28.48      25.50       0.11
C      25.56      28.69      -3.52
C      28.44      26.11       6.53
C      28.36      25.77       1.47
C      28.21      25.34       5.39
H      25.85      31.55      -1.98
C      25.92      30.62      -2.12
C      30.44      29.20      10.11
H      31.56      26.90       5.94
H      29.12      27.98      11.07
C      26.65      20.95       3.71
C      27.25      27.51      -0.39
H      31.68      30.16       8.80
C      27.69      26.90       1.90
C      30.48      25.73       4.67
H      21.13      19.60       3.36
H      24.14      22.92       3.01
C      29.23      25.15       4.47
C      29.88      27.58       7.92
C      30.70      26.50       5.80
C      26.07      23.50       2.76
C      31.06      29.44       8.88
C      22.22      18.71       4.82
C      25.04      22.64       3.10
C      21.97      19.60       3.79
C      29.54      28.15      10.23
C      27.14      27.78       0.97
C      26.48      29.80      -1.15
