70

C       9.85      13.53       4.67
C       6.86      11.76      10.11
C      11.32      11.76       5.39
C      18.14       9.63       3.39
Si      11.84      12.72       2.75
O       6.32      11.13      12.38
O       4.69      11.80      10.99
H      15.45       9.44       3.01
H      10.68      11.16      -1.75
O      21.88      10.14       6.28
H      19.89      11.42       6.16
O       7.20       5.26      -4.21
C      20.06       9.89       4.82
H       7.12       6.61      -1.98
O      22.00       8.45       4.81
O       8.96       6.01      -5.40
C       8.32       8.03      -1.15
H      10.94       9.21      -2.69
H       7.84       8.11      -0.33
H      14.43      13.99       3.45
C       9.74       7.79      -3.52
C       9.46       8.80      -1.36
C       6.34      12.18       8.88
C       8.16       6.02      -4.40
C      10.87      11.68       1.47
H      16.55      13.21       4.05
C       9.06      11.67       9.14
C      19.41       9.23       3.79
H      11.49      12.70      -0.19
C      13.68      12.18       2.88
H       9.61      14.19       4.03
H      10.23       7.71      -4.34
C      15.90      12.60       3.71
H      19.83       8.50       3.36
H      12.09      11.23       5.25
C      10.56      11.00      -0.82
C       8.22      11.51      10.23
C      19.44      10.97       5.46
C      16.20      11.25       3.59
H       8.29      13.88       5.94
C      17.52      10.71       4.03
C      21.46       9.44       5.29
H       6.83      12.62       6.96
C      10.53      11.58       6.53
C      18.17      11.37       5.06
H       8.58      11.22      11.07
H       5.41      12.35       8.80
H       9.99      11.49       9.22
C      10.23      10.53       1.90
C       7.90       7.14      -2.12
C       9.92       9.85      -0.39
C       5.91      11.57      11.31
C       8.54      12.08       7.92
H      10.11      10.37       2.83
C      10.98      12.74       4.47
H      10.77      10.91       7.16
H       9.30       8.83       1.26
H      13.33      10.23       2.43
H      17.69       9.18       2.69
H      17.75      12.10       5.49
C       9.75       9.61       0.97
C      10.17       8.68      -2.55
C      14.63      13.07       3.36
C      13.98      10.83       2.76
C       9.41      12.36       6.73
C      11.04      11.91       0.11
C      15.25      10.37       3.10
C       8.61       7.02      -3.31
C       9.06      13.34       5.80
C       7.19      12.34       7.79
