70

C      26.24      16.45       4.40
C      19.69      16.90      -0.11
C      18.93      12.49      -3.10
C      21.25      20.46      -7.79
Si      18.59      16.62      -2.75
C      16.59      10.46      -5.06
C      21.45      19.15     -10.23
C      25.15      16.57       3.31
C      16.89      14.37      -3.36
C      20.72      16.86       0.82
H      22.12      22.00      -8.80
O      15.81       6.64      -6.28
H      19.76      15.66      -5.25
C      16.31       9.16      -5.46
O      22.73      20.60     -12.38
C      23.91      15.97       3.52
O      25.84      15.76       5.40
O      22.96      22.35     -10.99
H      24.58      17.78       0.33
H      23.74      15.51       4.34
C      20.79      19.15      -7.92
O      17.21       5.68      -4.81
C      16.66      13.04      -3.71
H      15.69       9.00      -6.16
H      20.69      16.64      -7.16
O      27.37      16.90       4.21
H      18.78      16.91       0.19
H      16.20      15.01      -3.45
C      22.33      16.88      -0.97
C      17.49      10.69      -4.03
H      16.17      11.19      -5.49
H      21.49      16.94      -2.83
C      18.11       9.62      -3.39
C      18.89      18.75      -4.67
C      19.98      16.93      -1.47
H      26.24      17.65       1.98
H      23.23      16.87      -1.26
C      22.55      21.18     -11.31
H      20.58      17.60      -9.22
H      18.25       7.59      -3.36
H      18.73       9.78      -2.69
H      19.36      20.27      -5.94
C      24.41      17.32       1.15
H      22.08      15.64       2.69
C      20.89      18.50      -9.14
H      21.18      20.91      -6.96
C      20.12      18.55      -6.73
H      21.52      18.70     -11.07
C      21.30      16.92      -1.90
H      19.62      11.85      -3.01
H      20.52      16.84       1.75
C      17.68      12.11      -3.59
C      23.17      16.72       1.36
H      20.01      14.08      -2.43
H      15.81      12.78      -4.05
C      18.14      14.76      -2.88
H      18.43      19.28      -4.03
C      16.93       8.09      -4.82
C      22.04      16.85       0.39
C      19.01      17.38      -4.47
C      22.92      16.05       2.55
C      19.44      19.33      -5.80
C      16.62       6.65      -5.29
C      20.23      17.18      -6.53
C      19.68      16.59      -5.39
C      19.16      13.82      -2.76
C      25.40      17.24       2.12
C      21.91      20.45     -10.11
C      21.81      21.11      -8.88
C      17.83       8.32      -3.79
