70

C      30.55      15.59       9.23
C      34.56      15.67      17.87
C      32.23      15.27      11.42
Si      35.53      14.63      16.58
O      32.65      21.34      24.74
C      32.75      15.68      10.20
H      34.63      18.14      22.03
H      41.44      15.25      13.85
O      30.00      16.22       6.96
O      45.69      18.90      14.53
O      45.56      17.21      13.06
H      32.26      16.13       8.27
O      28.37      15.55       8.35
C      29.59      15.78       8.03
C      39.89      16.10      15.75
O      30.89      22.09      23.55
H      30.81      20.74      21.31
H      34.45      16.44      12.18
C      32.29      20.33      22.65
C      35.00      15.59      13.94
H      40.24      14.14      15.29
C      41.21      16.64      15.31
H      30.52      14.73      12.38
C      33.86      18.67      21.88
C      41.82      17.71      15.95
H      32.99      18.52      18.08
H      43.57      15.93      13.18
C      41.86      15.98      14.28
C      30.03      15.17      10.45
H      31.52      19.24      19.67
C      33.09      14.98      12.61
H      37.01      17.12      16.91
C      37.36      15.17      16.46
H      43.51      18.85      15.98
H      33.30      13.16      15.30
C      37.67      16.52      16.58
C      30.87      15.01      11.55
C      33.91      16.82      17.44
H      33.80      16.98      16.51
H      33.68      15.86      10.11
C      34.73      15.43      19.23
C      39.58      14.75      15.62
H      34.37      16.19      21.09
C      33.53      13.82      14.67
H      38.11      13.36      15.88
H      39.14      17.90      16.32
C      43.13      16.38      13.88
C      34.22      15.77      12.81
C      32.75      14.01      13.53
H      35.77      16.12      14.08
H      41.38      18.17      16.65
C      45.14      17.91      14.05
H      31.98      13.47      13.40
H      35.17      14.65      19.52
H      29.10      15.00      10.54
H      33.91      19.64      23.67
C      43.09      18.12      15.55
C      33.14      18.55      20.70
C      38.93      16.98      16.23
C      34.25      16.35      20.16
C      31.84      21.33      23.74
C      31.91      15.84       9.10
C      38.32      14.28      15.97
C      31.58      20.21      21.46
C      33.43      17.74      18.37
C      34.66      14.61      14.87
C      33.43      19.56      22.86
C      32.01      19.32      20.48
C      43.74      17.46      14.52
C      33.60      17.50      19.73
