70

C      29.20       8.56       9.04
C      37.63      -0.72       8.52
C      33.69       6.78      10.52
C      37.62       4.12       8.74
C      39.05       1.60       7.95
Si      35.53       6.84      11.07
O      25.49       9.30       7.47
C      25.91       8.14       7.14
O      25.37       7.35       6.36
C      36.05       9.01       9.29
H      35.28       8.70       8.83
H      37.76       8.53      12.04
H      41.96      12.41       8.71
O      38.41      -3.08       7.47
H      31.92       5.99       7.90
C      39.47       0.38       7.44
O      41.05      15.38       6.36
O      42.68      14.29       7.47
H      40.25       0.34       6.89
O      40.16      -2.22       6.36
C      41.03      12.44       8.52
C      31.17       7.13       9.41
H      37.14      -1.52       8.71
C      33.39       6.21       9.29
C      37.45       2.91       9.41
H      29.62       9.21       9.58
H      32.94       7.92      12.04
H      36.69       2.07      11.10
C      38.76      -0.78       7.72
H      36.60      10.39       7.90
C      29.23       6.41       7.95
C      31.47       7.70      10.64
C      40.18      11.46       9.04
H      39.53       2.39       7.76
C      39.21      -2.14       7.14
H      40.54      10.77       9.58
H      37.38      12.53       7.76
C      32.12       6.38       8.74
H      38.79      14.17       6.89
C      37.20       0.49       9.04
H      27.54       6.00       6.89
C      38.31       9.92      10.64
C      27.96       6.65       7.44
C      37.52       8.91      11.20
H      36.42       0.53       9.58
H      39.08      10.23      11.10
C      29.85       7.37       8.75
H      29.67       5.59       7.76
H      35.88       4.06      12.04
C      36.83      10.01       8.74
H      34.04       5.70       8.83
H      38.07       4.13       7.90
H      37.26       6.12       8.83
C      37.96      10.47       9.41
H      27.48       9.62       8.71
C      37.14       5.30       9.29
C      37.91       1.65       8.75
C      38.82      11.49       8.75
C      36.39       8.46      10.52
H      30.82       8.22      11.10
C      38.31      12.50       7.95
C      40.51      13.45       7.72
C      27.93       8.80       8.52
C      39.15      13.48       7.44
C      36.50       5.28      10.52
C      36.81       2.89      10.64
C      41.46      14.52       7.14
C      32.73       7.53      11.20
C      27.31       7.84       7.72
C      36.33       4.07      11.20
