20

Cu       4.54       6.77       0.32
Cu       6.34       4.99      -0.32
C       7.26       7.16       1.28
C       1.78       7.72       1.29
C       4.82       4.54       2.11
C       3.62       4.60      -1.28
C       9.10       4.04      -1.29
C       6.06       7.21      -2.11
N       2.96       9.53       1.10
N       2.97       8.17       0.92
N       7.92       2.23      -1.10
N       7.91       3.58      -0.92
O       6.07       7.59       1.34
O       7.68       6.11       0.68
O       5.78       4.11       1.39
O       4.11       5.59       1.91
O       4.81       4.17      -1.34
O       3.20       5.64      -0.68
O       5.10       7.64      -1.39
O       6.77       6.17      -1.91
