388

C       1.47      19.69      13.18
C       1.90       1.02      12.61
C       2.87       1.03      11.60
C       3.49      19.72      11.14
C       2.95      18.51      11.64
C       1.98      18.49      12.65
C       4.55      19.70      10.04
C       3.66      19.43       8.83
C       3.38      18.12       8.37
C       2.50      17.88       7.30
C       1.85      18.95       6.66
C       2.05       0.37       7.15
C       2.92       0.60       8.23
C       5.40       1.08       9.91
C       5.65      18.67      10.29
C       6.42      18.14       9.22
C       7.45      17.21       9.44
C       7.80      16.81      10.76
C       7.12      17.42      11.83
C       6.09      18.34      11.60
C       5.92       1.73      11.07
C       6.81       2.81      10.97
C       7.26       3.27       9.71
C       6.81       2.59       8.56
C       5.92       1.51       8.66
C       8.66      15.77      11.01
C       0.66      19.69      14.31
C       1.07      18.72       5.54
C       8.10       4.37       9.59
C       0.14       1.19      52.80
C      18.80       1.61      52.24
C      18.77       2.55      51.20
C       0.08       3.13      50.69
C       1.30       2.60      51.18
C       1.34       1.67      52.22
C       0.08       4.15      49.54
C       0.28       3.20      48.37
C       1.57       2.83      47.89
C       1.75       1.85      46.90
C       0.64       1.16      46.36
C      19.24       1.46      46.87
C      19.07       2.44      47.86
C      18.72       5.02      49.42
C       1.14       5.23      49.72
C       1.70       5.93      48.61
C       2.64       6.96      48.78
C       3.03       7.38      50.07
C       2.41       6.77      51.18
C       1.48       5.74      51.01
C      18.09       5.58      50.57
C      17.02       6.48      50.47
C      16.56       6.91      49.20
C      17.21       6.42      48.05
C      18.28       5.52      48.16
C       4.06       8.27      50.28
C       0.16       0.42      53.95
C       0.82       0.27      45.31
C      15.47       7.76      49.07
C      18.26       0.52      66.17
C      17.63       1.62      66.80
C      16.63       1.42      67.76
C      16.18       0.13      68.13
C      16.89      18.92      67.55
C      17.88      19.10      66.58
C      15.15      19.78      69.23
C      16.08      19.57      70.42
C      16.54      18.28      70.81
C      17.46      18.11      71.86
C      17.99      19.23      72.53
C      17.62       0.63      72.11
C      16.71       0.80      71.05
C      14.14       1.03      69.41
C      14.19      18.62      68.96
C      13.48      18.00      70.02
C      12.52      17.00      69.79
C      12.19      16.61      68.48
C      12.83      17.27      67.40
C      13.79      18.26      67.64
C      13.52       1.63      68.29
C      12.55       2.64      68.42
C      12.13       3.06      69.70
C      12.66       2.41      70.83
C      13.63       1.40      70.69
C      11.34      15.55      68.22
C      19.16       0.74      65.14
C      18.80      19.06      73.64
C      11.28       4.15      69.86
C       0.32       1.24      26.64
C       1.44       1.85      27.26
C       1.26       2.84      28.24
C      19.86       3.30      28.62
C      18.75       2.61      28.05
C      18.92       1.62      27.07
C      19.65       4.32      29.74
C      19.43       3.38      30.92
C      18.14       2.97      31.34
C      17.96       2.02      32.36
C      19.07       1.41      32.99
C       0.47       1.75      32.53
C       0.64       2.70      31.51
C       0.93       5.30      29.92
C      18.51       5.31      29.47
C      17.92       6.04      30.54
C      16.94       7.02      30.31
C      16.53       7.34      29.00
C      17.17       6.69      27.92
C      18.15       5.71      28.16
C       1.52       5.93      28.79
C       2.55       6.88      28.93
C       3.01       7.27      30.21
C       2.36       6.72      31.34
C       1.33       5.78      31.19
C      15.49       8.21      28.74
C       0.52       0.35      25.59
C      18.89       0.57      34.08
C       4.10       8.11      30.36
C      19.68      19.65      23.40
C       1.02      19.43      22.73
C      19.77      18.82      20.70
C      18.51      19.01      21.33
C      18.49      19.43      22.68
C       0.07      18.63      19.31
C       1.12      17.86      18.76
C       1.35      17.94      17.36
C       0.58      18.78      16.54
C      19.41      19.50      17.14
C       0.04      19.82      63.02
C       0.26       1.13      62.31
C       0.98      19.81      60.36
C       0.81      18.57      61.04
C       0.33      18.60      62.37
C       1.20       0.04      58.97
C       1.96       1.09      58.38
C       1.89       1.27      56.98
C       1.08       0.44      56.18
C       0.39      19.26      56.81
C      18.88      19.48      75.99
C      17.97      19.69      77.04
C      19.67      19.35      78.68
C       0.76      19.16      77.67
C       0.34      19.23      76.32
C       0.08      19.31       0.53
C      19.18      18.61       1.47
C      19.58      18.64       2.83
C       0.84      19.35       3.24
C       1.57       0.16       2.26
C      19.81       0.15      36.27
C      18.90      19.12      36.86
C       0.12      19.30      38.98
C       1.06       0.33      38.45
C       0.95       0.67      37.08
C      19.88      19.12      40.37
C       1.02      18.56      41.18
C       0.97      18.81      42.58
C      19.83      19.61      43.14
C      18.80       0.17      42.29
C       8.52       6.57      10.47
C       7.97       7.44      11.43
C       9.30       9.27      10.64
C       9.92       8.43       9.68
C       9.53       7.07       9.62
C       9.41      10.68      10.65
C       9.40      11.46      11.84
C       9.21      12.86      11.72
C       9.03      13.47      10.46
C       9.08      12.65       9.32
C      13.27       8.21      49.96
C      12.39       7.66      50.91
C      10.56       8.97      50.08
C      11.41       9.60      49.13
C      12.77       9.21      49.09
C       9.15       9.06      50.05
C       8.34       9.05      51.22
C       6.95       8.83      51.07
C       6.37       8.61      49.80
C       7.22       8.66      48.68
C      10.95       6.39      69.02
C      11.51       7.22      68.03
C      10.31       9.13      68.83
C       9.69       8.34      69.83
C      10.02       6.96      69.91
C      10.27      10.54      68.78
C      10.29      11.28      67.57
C      10.57      12.67      67.64
C      10.83      13.30      68.87
C      10.75      12.52      70.04
C       6.32       8.50      29.47
C       7.15       7.95      28.48
C       9.05       9.18      29.28
C       8.25       9.79      30.28
C       6.88       9.44      30.36
C      10.46       9.23      29.25
C      11.21       9.21      28.04
C      12.60       8.95      28.12
C      13.23       8.70      29.37
C      12.44       8.77      30.53
H       7.93      16.80       8.64
H       6.21      18.40       8.25
H       7.34      17.16      12.80
H       5.64      18.76      12.42
H       5.65       1.41      12.00
H       7.14       3.25      11.84
H       7.13       2.88       7.63
H       5.66       1.03       7.80
H       3.02       1.56       8.57
H       1.56       1.17       6.73
H       2.36      16.92       6.97
H       3.81      17.31       8.81
H       3.30      17.61      11.30
H       3.15       1.94      11.21
H       1.55       1.92      12.96
H       1.68      17.58      13.03
H       8.71       4.43       8.81
H       9.22      15.77      11.83
H       0.43      17.96       5.54
H      19.84       0.50      14.41
H       3.06       7.39      47.95
H       1.43       5.67      47.66
H       2.66       7.05      52.14
H       1.05       5.34      51.85
H      18.42       5.33      51.50
H      16.60       6.84      51.33
H      16.92       6.73      47.12
H      18.74       5.23      47.30
H      18.13       2.60      48.22
H      18.41       0.96      46.52
H       2.69       1.66      46.57
H       2.41       3.27      48.27
H       2.20       2.93      50.81
H      17.86       2.82      50.82
H      17.91       1.28      52.63
H       2.25       1.37      52.59
H      15.40       8.35      48.28
H       4.03       8.88      51.07
H       1.70      19.69      45.21
H      19.36      19.60      54.08
H      12.06      16.56      70.60
H      13.67      18.27      70.99
H      12.61      17.02      66.43
H      14.19      18.73      66.83
H      13.79       1.36      67.34
H      12.17       3.07      67.58
H      12.37       2.68      71.78
H      13.97       0.94      71.53
H      16.48       1.75      70.76
H      18.00       1.47      72.56
H      17.73      17.16      72.14
H      16.20      17.44      70.34
H      16.66      17.96      67.82
H      16.23       2.25      68.21
H      17.89       2.58      66.54
H      18.33      18.28      66.17
H      10.67       4.20      70.64
H      10.84      15.52      67.36
H      19.58      18.45      73.59
H      19.63       1.61      65.08
H      16.51       7.48      31.12
H      18.19       5.85      31.51
H      16.92       6.91      26.96
H      18.60       5.30      27.34
H       1.22       5.69      27.85
H       2.97       7.27      28.08
H       2.66       6.99      32.29
H       0.88       5.43      32.05
H       1.60       2.90      31.20
H       1.31       1.32      32.94
H      17.00       1.79      32.66
H      17.30       3.34      30.89
H      17.80       2.84      28.34
H       2.10       3.22      28.67
H       2.39       1.59      26.99
H      18.08       1.18      26.66
H       4.17       8.69      31.16
H      15.47       8.73      27.89
H      18.05       0.03      34.16
H       1.36      19.71      25.55
H      17.59      19.62      23.13
H       2.14      17.43      16.96
H      18.83       0.26      16.60
H       1.92      19.64      23.17
H       0.14      17.72      62.85
H       2.38       2.05      56.55
H      19.65      18.65      56.28
H      19.88       2.04      62.69
H       1.03      19.08      75.57
H      19.03      18.12       3.52
H       2.41       0.69       2.49
H      16.98      19.88      76.85
H       1.59       1.37      36.69
H       1.74      18.49      43.16
H      18.06       0.79      42.63
H      18.11      18.75      36.34
H       9.95       6.47       8.91
H       9.11      13.42      12.57
H       8.89      13.03       8.39
H       7.21       7.14      12.05
H      13.39       9.63      48.39
H       6.37       8.74      51.91
H       6.87       8.44      47.75
H      12.69       6.91      51.54
H       9.61       6.39      70.65
H      10.67      13.19      66.76
H      10.98      12.92      70.95
H      12.22       6.86      67.38
H       6.30       9.85      31.10
H      13.14       8.85      27.26
H      12.83       8.54      31.44
H       6.81       7.24      27.84
N       1.01      19.06      21.43
N      19.21      19.41      18.48
N       1.92      17.04      19.59
N      17.32      18.78      20.61
N       0.99      18.95      15.30
N      19.62       0.37      24.58
N       0.68       1.07      61.03
N       0.46      19.13      58.15
N       2.74       1.95      59.19
N       1.10      17.36      60.38
N       0.91       0.80      54.92
N      19.27      19.78      64.17
N      18.39      19.61      78.32
N       1.17       0.11       0.96
N      18.05      17.86       1.05
N       2.11      18.88      78.01
N       1.32      19.39       4.47
N      18.40      19.54      74.75
N      19.01      18.82      38.18
N      18.89      19.84      40.95
N       2.07      17.83      40.58
N       2.00       0.97      39.29
N      19.86       0.27      44.34
N      19.70       0.66      35.06
N       8.35       8.74      11.45
N       9.24      11.31       9.46
N       9.52      10.83      13.10
N      10.91       8.96       8.82
N       8.53      14.69      10.32
N       7.97       5.36      10.39
N      11.09       8.03      50.91
N       8.55       8.85      48.85
N       8.93       9.22      52.50
N      10.89      10.58      48.26
N       5.17       8.09      49.65
N      14.47       7.66      49.88
N      11.20       8.53      67.99
N      10.51      11.20      69.95
N      10.09      10.63      66.33
N       8.77       8.94      70.73
N      11.37      14.51      68.97
N      11.45       5.17      69.10
N       8.46       8.28      28.45
N      11.11       9.00      30.42
N      10.57       9.41      26.80
N       8.83      10.73      31.17
N      14.43       8.16      29.47
N       5.10       7.98      29.57
O       3.13      17.39      19.56
O      16.61      19.81      20.54
O      16.64      17.86      21.13
O       1.85      15.83      19.25
O       2.35       3.15      59.10
O       0.08      16.62      60.30
O       2.01      16.73      60.97
O       3.95       1.90      58.88
O      17.00      18.26       1.60
O       2.89      19.75      77.55
O       2.46      17.75      77.58
O      18.19      16.63       1.30
O       2.08      16.65      41.00
O       1.78       2.21      39.36
O       3.18       0.80      38.88
O       3.19      18.34      40.83
O       8.50      11.02      13.81
O      10.58       8.85       7.61
O      12.02       8.38       8.99
O      10.52      11.26      13.73
O       8.75       8.21      53.22
O      11.02      10.24      47.05
O      11.45      11.69      48.42
O       8.47      10.22      53.09
O      11.10      10.73      65.59
O       9.15       8.83      71.92
O       7.63       8.41      70.63
O       9.10      11.10      65.72
O      10.69       8.40      26.05
O       8.73      10.35      32.37
O       8.29      11.86      31.07
O      11.04      10.41      26.19
