25

C       0.29      19.69      10.70
C       1.12      20.86      11.19
C       0.29      17.13      10.70
C       1.12      15.97      11.19
P       0.49      22.46      10.59
P       0.49      14.37      10.59
C       0.92      18.41      11.20
O       1.01      23.71      11.27
O      -1.07      22.30      10.75
O       0.81      22.46       9.06
H      -1.32      22.65      11.73
O      -1.07      14.53      10.75
O       0.81      14.37       9.05
H      -0.78      19.77      11.04
H       0.25      19.69       9.60
H       2.18      20.68      10.91
H       1.09      20.92      12.29
O       1.01      13.12      11.27
H      -1.32      14.18      11.72
H      -0.78      17.05      11.03
H       0.25      17.14       9.60
H       2.19      16.15      10.91
H       1.10      15.90      12.29
H       0.94      18.41      12.30
H       2.00      18.41      10.91
