25

C       0.29      19.69       3.98
C       1.12      20.86       3.49
P       0.49      14.37       4.09
P       0.49      22.46       4.09
C       0.92      18.41       3.48
O       1.01      13.12       3.41
O      -1.07      14.53       3.93
O       0.81      14.37       5.62
H      -1.32      14.18       2.95
H      -0.78      17.05       3.64
H       0.25      17.14       5.08
H       2.18      16.15       3.77
H       1.09      15.90       2.39
O       1.01      23.71       3.41
O      -1.07      22.30       3.93
O       0.81      22.46       5.63
H      -1.32      22.65       2.95
H      -0.78      19.78       3.64
H       0.25      19.68       5.08
H       2.19      20.68       3.77
H       1.10      20.93       2.39
H       0.94      18.42       2.38
H       2.00      18.41       3.77
C       0.29      17.13       3.98
C       1.12      15.97       3.48
