23

C       3.09      15.97      29.15
P       3.71      22.53      29.57
C       3.92      17.12      29.67
C       3.30      18.42      29.18
P       3.71      14.30      29.57
O       5.23      22.34      29.75
O       3.29      23.44      28.42
O       3.17      23.12      30.94
H       2.03      20.73      29.46
H       3.08      20.87      28.05
H       4.99      19.80      29.33
H       3.95      19.72      30.76
O       5.23      14.49      29.75
O       3.29      13.39      28.42
O       3.16      13.71      30.94
H       2.03      16.10      29.46
H       3.07      15.96      28.05
H       4.99      17.03      29.33
H       3.95      17.11      30.76
H       3.27      18.42      28.08
H       2.22      18.42      29.48
C       3.09      20.87      29.15
C       3.92      19.71      29.67
