40

N       9.59       9.98       4.57
C      10.70       9.30       5.18
C      11.97       9.47       4.59
C      13.09       8.90       5.12
C      12.97       8.14       6.28
C      11.72       7.94       6.86
C      10.58       8.54       6.29
C      14.21       7.54       6.91
C       9.71      11.37       4.34
C       9.08      11.97       3.29
C       9.10      13.36       3.14
C       9.82      14.14       4.03
C      10.53      13.52       5.06
C      10.46      12.14       5.19
C       9.83      15.62       3.85
C       8.31       9.35       4.57
C       7.17      10.10       4.94
C       5.95       9.50       4.93
C       5.83       8.18       4.54
C       6.97       7.49       4.17
C       8.18       8.04       4.20
C       4.47       7.53       4.56
O      15.24       7.53       6.20
O      14.10       7.10       8.10
O      10.42      16.34       4.74
O       9.27      16.13       2.88
O       4.29       6.39       3.99
O       3.54       8.07       5.24
H      12.05       9.97       3.81
H      13.92       9.02       4.72
H      11.64       7.41       7.63
H       9.75       8.42       6.68
H       8.63      11.45       2.66
H       8.63      13.76       2.45
H      11.05      14.03       5.65
H      10.93      11.73       5.88
H       7.25      10.99       5.19
H       5.20       9.97       5.19
H       6.89       6.61       3.87
H       8.93       7.53       3.97
