40

C      10.82      10.18       0.11
C      11.61      11.09       0.87
C      11.64      12.41       0.54
C      10.94      12.93      -0.57
N      10.76       8.83       0.46
C      10.14      12.03      -1.29
C      11.06      14.32      -0.96
C       8.33       8.53       0.73
C       7.20       7.84       0.49
C       7.22       6.68      -0.21
C       8.42       6.18      -0.67
C       9.59       6.87      -0.45
C       9.51       8.08       0.23
C       5.98       5.87      -0.56
C      11.85       8.15       1.12
C      11.57       7.13       2.02
C      12.59       6.49       2.72
C      13.90       6.85       2.57
C      10.09      10.69      -0.98
C      14.19       7.81       1.59
C      13.17       8.46       0.84
C      15.02       6.32       3.36
O      11.87      15.09      -0.36
O      10.39      14.78      -1.93
O       4.86       6.36      -0.19
O       6.05       4.85      -1.24
O      16.19       6.79       3.24
O      14.76       5.49       4.26
H      12.10      10.79       1.60
H      12.14      13.00       1.06
H       9.63      12.35      -2.00
H       9.57      10.11      -1.49
H       8.31       9.31       1.23
H       6.39       8.17       0.81
H       8.44       5.36      -1.11
H      10.41       6.55      -0.76
H      10.69       6.87       2.16
H      12.38       5.80       3.31
H      15.07       8.04       1.42
H      13.39       9.08       0.18
