40

N       5.89       2.19      21.83
H       5.40       0.93      19.58
H       5.55      -1.29      19.05
H       6.54      -2.12      22.82
H       6.37       0.12      23.39
H       5.81       4.50      20.60
H       3.96       5.61      19.76
H       1.56       2.76      21.17
H       3.38       1.62      22.01
H       8.37       1.50      21.50
H      10.28       2.50      22.35
H       8.07       5.27      24.10
H       6.19       4.29      23.32
O       6.24      -4.16      21.54
O       6.18      -3.76      19.37
O       1.58       5.94      18.92
O       0.23       4.54      19.97
O      11.79       4.23      23.34
O      10.55       5.47      24.69
C       5.90       0.79      21.54
C       5.64       0.32      20.24
C       5.72      -1.01      19.92
C       6.05      -1.94      20.88
C       6.30      -1.50      22.17
C       6.22      -0.15      22.51
C       6.16      -3.39      20.55
C       4.81       2.95      21.35
C       4.96       4.14      20.71
C       3.84       4.80      20.21
C       2.57       4.29      20.36
C       2.41       3.11      21.04
C       3.50       2.42      21.55
C       1.41       5.03      19.75
C       7.06       2.80      22.34
C       8.30       2.26      22.03
C       9.46       2.89      22.53
C       9.42       4.02      23.26
C       8.15       4.52      23.57
C       7.02       3.92      23.10
C      10.70       4.59      23.78
