40

H      -3.07      12.46      22.59
H      -3.10      10.25      23.13
H      -0.59      10.90      26.19
H      -0.53      13.13      25.68
H       0.73      13.93      22.96
H       2.64      15.08      23.38
H       0.59      17.88      25.30
H      -1.38      16.70      24.95
H      -1.66      16.38      22.02
H      -3.34      17.45      20.88
H      -6.04      15.21      22.77
H      -4.35      14.16      24.01
N      -1.73      14.42      23.73
C      -1.78      13.06      24.08
C      -2.57      12.15      23.32
C      -2.60      10.83      23.65
C      -1.90      10.32      24.75
C      -1.10      11.22      25.48
C      -1.05      12.56      25.17
C      -2.03       8.93      25.15
C       0.70      14.71      23.46
O      -2.84       8.16      24.54
O      -1.35       8.46      26.12
C       1.83      15.40      23.70
C      -0.56      16.37      24.64
C      -0.47      15.16      23.96
C       0.61      17.07      24.85
C      -2.81      15.10      23.06
C       1.81      16.56      24.40
C       3.05      17.37      24.75
O       4.18      16.89      24.38
O       2.98      18.40      25.43
C      -2.54      16.12      22.16
C      -4.14      14.78      23.35
C      -3.55      16.76      21.46
C      -5.15      15.43      22.60
C      -4.87      16.39      21.62
C      -5.99      16.92      20.83
O      -7.16      16.45      20.95
O      -5.73      17.76      19.92
