40

N       7.99       2.80      12.56
O       9.10      -3.46      11.74
H       9.33       0.83      13.69
H       9.37      -1.37      13.15
H       6.86      -0.73      10.09
H       6.80       1.51      10.60
H       5.54       2.31      13.33
H       3.62       3.45      12.90
H       5.67       6.26      10.98
H       7.64       5.08      11.34
H       7.92       4.75      14.26
O       7.62      -3.16      10.16
O       2.08       5.27      11.90
H      10.62       2.54      12.28
O       3.28       6.78      10.86
H      12.30       3.59      13.52
O      13.42       4.83      15.33
O      11.99       6.14      16.36
H       9.61       5.83      15.40
C       8.05       1.44      12.21
C       8.84       0.53      12.97
C       8.86      -0.79      12.63
C       8.17      -1.30      11.53
C       7.37      -0.41      10.80
C       7.32       0.94      11.12
C       8.29      -2.70      11.13
C       5.56       3.09      12.82
C       4.43       3.78      12.58
C       4.45       4.94      11.88
C       5.65       5.45      11.43
C       6.82       4.75      11.64
C       6.73       3.54      12.32
C       3.21       5.75      11.54
C       9.08       3.48      13.22
C       8.80       4.49      14.12
C       9.82       5.13      14.82
C      11.13       4.77      14.66
C      11.41       3.81      13.68
C      10.40       3.16      12.94
C      12.25       5.30      15.45
