14

H       4.91       7.16       1.83
H       2.50      10.82       3.97
N       4.09      10.31       2.72
N       2.58       8.76       3.73
C       4.77       9.29       2.14
C       2.71       6.37       3.45
C       4.35       7.97       2.31
C       3.25       7.74       3.13
C       6.06       9.59       1.38
O       6.39      10.84       1.36
C       3.03      10.00       3.49
O       3.48       5.38       3.30
O       6.68       8.63       0.91
O       1.52       6.33       3.88
