13

C       5.86       2.31      10.20
C       6.67       2.42       8.98
O       6.64       1.44       8.14
O       3.98       2.20      14.59
C       4.57       3.04      13.82
O       4.83       4.24      14.14
S       6.08       3.43      11.49
C       4.93       1.33      10.51
H       4.70       0.53       9.81
O       7.39       3.45       8.80
H       3.67       0.82      12.25
C       4.41       1.47      11.80
C       4.94       2.58      12.47
