32

Dy      -3.98       7.44      27.77
Dy       4.05       7.23      27.74
Dy       0.04       7.32      28.79
C       1.12       5.86      26.53
C      -7.17       7.32      27.99
C      -2.74       5.42      29.85
O      -3.37       8.75      29.38
O      -1.17       9.12      29.74
O      -1.86       7.90      27.03
O       0.14       8.86      27.07
O      -6.06       7.47      28.59
O       3.52       5.89      29.36
O       1.33       5.51      29.73
O       1.97       6.73      27.00
O      -0.01       5.73      27.07
O      -8.28       7.18      28.58
O      -3.88       5.64      29.32
O      -1.68       6.06      29.49
C       2.89       9.21      29.85
O       4.03       9.01      29.29
O       1.83       8.59      29.48
O      -4.59       9.38      26.61
O      -4.63       7.44      25.49
O       4.68       5.23      26.61
O       4.77       7.16      25.48
C      -5.19       9.47      24.30
C      -4.78       8.73      25.52
C       5.31       5.11      24.31
C      -2.39       9.47      29.78
C       4.91       5.87      25.53
C      -1.00       8.74      26.55
C       2.55       5.16      29.77
