18

O       5.35      10.20       7.34
O       9.37      12.70       3.10
O       8.34      14.68       2.73
O       5.15      16.48       6.14
O       4.35      15.00       7.68
O       7.35       9.69       6.37
C       7.65      13.42       4.60
C       6.83      14.47       5.07
H       6.91      15.46       4.63
H       5.03      12.73       7.39
H       8.16      11.34       4.79
C       5.91      14.23       6.10
C       5.77      12.93       6.62
C       6.57      11.89       6.15
C       7.53      12.14       5.16
C       8.54      13.60       3.42
C       5.08      15.32       6.67
C       6.39      10.50       6.67
