54

C       7.21       7.27       3.16
C       7.33      16.00       4.78
C       6.73      12.38       5.76
C       6.81      11.22       7.90
C       6.71       9.94       5.82
H       5.37      12.94       3.44
H       5.52      12.97       9.55
C       6.69      13.66       5.00
H       5.39       7.65       6.57
C       6.83      11.25       9.38
C       6.64       8.65       5.10
C       6.57      16.13       3.61
H       8.12       9.54       9.61
C       6.77      11.26      12.22
H       7.87       9.29       3.44
C       6.48       6.20       3.68
H       8.01      14.71       6.35
H       6.51      17.07       3.08
H       6.74      11.25      13.30
C       6.80      12.40       7.16
H       6.41       5.26       3.14
C       6.77       9.99       7.22
C       6.68      11.15       5.10
H       6.84      13.36       7.68
H       6.78       9.06       7.79
H       6.61      11.12       4.01
O       4.68      16.23       1.48
O       4.86      13.04      13.38
O       4.63       4.30       4.72
C       5.94      13.78       3.82
C       6.10      12.22      10.08
C       5.92       7.56       5.62
O       8.61       9.39      13.45
O       8.32       6.03       1.45
O       8.44      18.12       4.59
O       4.70      13.94       1.41
C       7.53      10.29      10.12
O       4.77      14.18      11.40
C       7.28       8.48       3.87
O       4.57       5.45       6.69
C       7.39      14.78       5.46
C       5.03      15.07       1.91
C       5.18      13.22      12.15
C       4.95       5.28       5.48
O       8.71       8.28      11.46
O       8.27       8.31       1.35
O       8.51      16.97       6.56
C       8.33       9.25      12.21
C       7.98       7.18       1.89
C       8.15      17.13       5.34
C       5.88      15.01       3.14
C       6.06      12.22      11.49
C       5.82       6.35       4.91
C       7.52      10.30      11.52
