76

C       0.11       9.82       9.74
C      -0.53       9.16      10.91
C       0.23       8.35      11.76
C      -0.34       7.81      12.91
C       0.11       9.82       5.94
C      -0.53       9.16       4.76
C       0.23       8.35       3.91
C      -0.34       7.81       2.76
C       4.48       1.39       9.74
C       5.12       2.04      10.91
C       4.36       2.86      11.76
C       4.93       3.40      12.91
C       4.48       1.39       5.94
C       5.12       2.04       4.76
C       4.36       2.86       3.91
C       4.93       3.40       2.76
C       5.03       8.03      13.21
C       4.27       8.82      12.34
C       4.85       9.40      11.21
C       4.45       7.47      14.45
C       4.99       7.87       0.00
C       3.36       6.56      14.43
C       2.83       6.08       0.00
C       2.81       6.06      13.21
C      -0.44       3.18      13.21
C       0.33       2.38      12.34
C      -0.25       1.80      11.21
C       0.14       3.74      14.45
C      -0.40       3.34       0.00
C       1.23       4.65      14.43
C       1.76       5.12       0.00
C       1.79       5.15      13.21
C      -0.44       3.18       2.47
C       0.33       2.38       3.34
C      -0.25       1.80       4.47
C       0.14       3.74       1.23
C       1.23       4.65       1.24
C       1.79       5.15       2.46
C       5.03       8.03       2.47
C       4.27       8.82       3.34
C       4.85       9.40       4.47
C       4.45       7.47       1.23
C       3.36       6.56       1.24
C       2.81       6.06       2.46
H       1.27       8.15      11.52
H       0.26       7.19      13.58
H      -0.91       8.57       0.00
H       1.27       8.15       4.16
H       0.26       7.19       2.09
H       3.32       3.05      11.52
H       4.34       4.01      13.58
H       5.50       2.63       0.00
H       3.32       3.05       4.16
H       4.34       4.01       2.09
H       3.22       9.02      12.57
H       4.26      10.05      10.56
H       3.22       6.41      12.27
H       1.37       2.19      12.57
H       0.33       1.15      10.56
H       1.37       4.80      12.27
H       1.37       2.19       3.11
H       0.33       1.15       5.12
H       1.37       4.80       3.41
H       3.22       9.02       3.11
H       4.26      10.05       5.12
H       3.22       6.41       3.41
O       1.23       9.35       9.33
O      -0.51      10.82       9.23
O       1.23       9.35       6.34
O      -0.51      10.82       6.45
O       3.36       1.85       9.33
O       5.10       0.38       9.23
O       3.36       1.85       6.34
O       5.10       0.38       6.45
Zn       2.17      10.33       7.84
Zn       2.42       0.87       7.84
