13

N       1.19      17.88       1.73
N       2.53      17.67       1.63
N       1.18      19.84      -0.23
N       2.53      19.73      -0.44
Cu       0.11      18.09      -0.02
C      -0.72      17.99      -3.00
N      -1.01      18.32      -1.74
C       0.89      21.10       0.10
N      -2.35      18.54      -1.62
C      -0.73      15.11      -0.11
N      -1.01      16.37       0.23
N      -2.35      16.49       0.44
C       0.89      18.23       2.99
