13

C       0.89       8.95       6.07
C      -0.72       9.25      12.07
C      -0.72      12.11       9.20
N       1.20       9.29       7.32
Cu       0.12       9.12       9.09
N       2.55       9.49       7.40
N       1.20       7.35       9.29
N       2.55       7.44       9.48
C       0.89       6.10       8.92
N      -1.01       8.90      10.82
N      -2.36       8.69      10.71
N      -1.00      10.85       8.85
N      -2.35      10.74       8.64
