22

C      11.99       8.86      11.90
Cu      11.60       8.84       8.80
N      13.89      10.85       8.85
N      12.55      10.74       8.64
H       8.28       5.18      11.02
H      10.99       6.01       7.87
H       8.28      11.04       5.13
N       9.42       6.97      10.56
N      10.28       7.24       9.49
H      10.99       7.89       5.98
N       9.60       5.19       9.30
N       9.42      10.59       6.93
N      10.27       9.52       7.21
N       9.59       9.31       5.15
C      12.00      11.93       8.81
N      13.88       8.90      10.82
N      12.53       8.69      10.71
C       9.01       5.72      10.40
C      10.35       6.15       8.73
Cl      13.15       7.45       7.42
C       9.02      10.43       5.67
C      10.36       8.76       6.12
