13

N       8.53       9.39       1.79
N       9.87       9.61       1.67
N       6.34      10.75       0.10
N       4.98      10.67       0.31
C       6.68      12.01      -0.05
Cu       7.45       9.03       0.02
C       8.28       6.08       0.06
C       8.31       8.80       3.00
C       6.65       9.31      -2.97
N       6.42       8.71      -1.77
N       5.08       8.48      -1.66
N       8.62       7.34      -0.09
N       9.97       7.44      -0.30
