14

Cu       3.44      17.87      17.80
N       2.61      17.74      19.74
N       1.27      17.96      19.84
N       1.27      19.91      17.88
N       2.61      19.80      17.67
N       4.85      16.30      18.46
C       4.74      15.14      17.83
N       5.77      16.17      19.50
C       4.74      17.90      15.07
Cl       2.03      16.47      16.41
N       4.85      18.53      16.22
N       5.77      19.57      16.09
C       3.16      21.00      17.84
C       3.16      17.92      20.94
