14

N       8.53       9.39       1.79
N       9.87       9.61       1.67
C      12.03       9.36      -2.98
Cu      10.79       9.39      -0.20
C      10.46       6.22      -0.33
C      10.45       9.21       2.81
Cl       9.36      10.81      -1.59
N       8.62       7.34      -0.09
N       9.97       7.44      -0.30
C      12.12      12.05      -0.27
N      13.17      11.14       1.44
N      12.26      10.92       0.40
N      13.00       7.59      -2.09
N      12.10       8.64      -1.87
