14

N      13.09      16.05       7.60
N      12.19      16.28       8.65
C      10.54      20.97       9.20
Cu      10.88      17.95       9.39
C      10.54      17.80       6.23
N       8.62      19.93       9.38
N       9.96      19.82       9.61
Cl       9.44      16.57      10.82
N      13.25      19.59      11.13
N      12.34      18.56      10.92
C      12.11      15.17       9.36
N       8.70      18.05       7.35
N      10.05      17.84       7.44
C      12.20      17.88      12.05
