16

V       2.60      13.48       0.04
C       4.53      11.48      -1.30
C       4.56      12.53       2.26
C       1.09      15.79       1.30
C       1.05      14.72      -2.27
V       6.07      13.78      -0.04
O       5.69      12.87       1.70
O       3.36      11.91      -0.96
O       2.17      14.39      -1.70
O       3.40      12.71       1.73
O       2.21      15.20       1.01
O       5.65      12.06      -1.01
O       4.50      14.45      -0.24
O      -0.08      15.36       0.96
O      -0.12      14.55      -1.73
O       1.04      12.82       0.24
