444

C      -2.21      11.29      30.97
C      -3.14      13.49      38.10
C      -2.51      12.48       7.08
C      -1.01       9.39      44.78
C      -2.30      12.47      40.35
C      -1.54      10.71      42.47
C      -2.80      10.58      41.83
C      -3.18      11.46      40.79
C      -4.86      11.79       7.22
C      -5.36      12.08       8.54
C      -6.44      11.30       9.06
C      -5.45      10.70       6.52
C      -6.68      12.64      11.03
C      -5.57      13.40      10.59
C      -7.44      12.83      12.29
C      -5.07      14.51      11.43
C      -4.56       8.63      31.36
C      -4.05       9.74      30.68
C      -4.54      10.04      29.38
C      -5.60       9.29      28.84
C      -4.32       7.24      33.29
C      -3.57       6.99      34.55
C      -2.65      13.90      35.63
C      -2.08      12.62      31.41
C      -2.01      12.94      32.77
C      -1.01      11.77       5.11
C      -1.34      11.90       6.49
C      -0.43      10.73       2.21
C      -0.90      11.15      27.70
C      -1.76      14.48      34.65
C      -2.39      14.08      37.03
C      -1.90      14.28      33.23
C      -1.85      15.33      32.24
C      -1.90      15.03      30.83
C      -2.00      13.67      30.46
C       0.22      11.19       4.63
C      -0.41      11.32       7.38
C       0.82      10.72       7.00
C       1.15      10.66       5.61
C       0.49      11.21       3.22
C      -0.14      10.88       0.80
C      -1.03      12.59      40.97
C      -0.66      11.72      42.02
C      -0.24      12.31      27.11
C       1.07      10.94      25.43
C      -0.64      13.86      11.03
C      -1.95      14.15      10.43
C       2.31       8.05      26.41
C      -0.62      15.22      35.12
C      -0.31      15.38      36.50
C      -1.25      14.84      37.40
C       0.79      16.07      37.09
C      -1.91      16.05      29.81
C       2.66      14.49      19.64
C       2.76      13.12      20.09
C       2.79      12.74      21.46
C       2.81      13.82      22.37
C       2.72      15.19      22.02
C       2.64      15.54      20.63
C       2.52      14.77      18.23
C       3.42      14.25      17.22
C       3.19      14.50      15.82
C       2.05      15.28      15.47
C       1.19      15.84      16.44
C       1.43      15.57      17.80
C       0.11      16.63      16.01
C       2.61      16.11      23.11
C       2.86      11.44      22.05
C       4.06      14.04      14.79
C       1.09      11.49       0.45
C       2.04      11.92       1.42
C       1.72      11.78       2.78
C       3.25      12.48       0.99
C       1.67      10.30       8.06
C       9.84       4.15      44.76
C       9.91       3.83      43.36
C       9.13       5.28      39.96
C       9.38       5.12      38.55
C       9.94       4.22       0.80
C       8.53       5.65      37.53
C       1.49      12.79      42.12
C       1.13      13.63      41.05
C       2.82      12.79      42.71
C       2.03      14.63      40.46
C       1.34      15.79      25.36
C       0.83      14.62      25.95
C      -0.10      14.71      27.01
C      -0.54      15.96      27.48
C      -0.05      17.14      26.85
C       0.90      17.05      25.81
C       0.66      12.22      26.03
C       2.10      11.48      10.33
C       1.35      12.50      10.95
C       1.91      13.24      12.01
C       3.22      12.97      12.46
C       3.98      11.96      11.82
C       3.41      11.21      10.77
C      -0.10      14.56      12.11
C      -0.76      15.72      12.70
C       1.38      18.45      37.23
C       1.90      18.71      38.55
C      12.40       0.35      37.11
C       0.73      19.51      36.55
C       4.61       9.71      22.24
C       4.59       9.10      23.56
C       5.80       8.54      24.07
C       7.03       8.65      23.41
C       7.04       9.23      22.11
C       5.86       9.77      21.56
C       4.74       7.61      26.01
C       3.53       8.20      25.58
C       4.93       6.81      27.26
C      11.19       1.21      14.56
C      10.64       0.89      15.85
C      -1.02      20.00      16.33
C      -0.32      19.01      15.65
C       0.16      19.31      14.34
C      11.82       0.17      13.82
C       9.46      -0.00      18.29
C       9.33       1.34      17.86
C      -2.90      19.86      19.54
C       8.58       2.30      18.69
C       5.52      11.68       0.65
C       5.53      10.12      44.35
C       6.72       9.58      43.81
C       9.88       4.90      42.37
C      10.00       4.69      40.95
C      14.29       5.35      12.36
C      13.16       4.58      12.80
C      12.87       4.34      14.17
C      13.81       4.83      15.09
C      14.96       5.59      14.74
C      15.20       5.87      13.35
C      14.43       5.61      10.95
C      14.41       4.57       9.94
C      14.46       4.91       8.54
C      14.56       6.28       8.20
C      14.64       7.31       9.17
C      14.56       6.96      10.53
C      14.78       8.64       8.74
C      15.73       6.12      15.82
C      11.79       3.57      14.68
C      14.47       3.93       7.50
C       9.81       6.24      42.84
C       9.79       6.58      44.21
C       9.77       6.54       0.11
C      10.53       4.36      38.19
C      11.38       3.75      39.14
C      11.12       3.94      40.50
C      12.48       2.98      38.71
C       9.68       7.90      44.72
C      12.34       8.95      27.37
C      13.55       8.33      27.81
C      13.86       8.14      29.18
C      12.96       8.67      30.11
C      11.73       9.29      29.77
C      11.41       9.43      28.37
C      12.07       8.99      25.96
C      12.99       9.50      24.97
C      12.68       9.42      23.56
C      11.44       8.83      23.20
C      10.51       8.36      24.15
C      10.84       8.43      25.51
C       9.29       7.80      23.73
C      10.87       9.64      30.85
C      15.06       7.56      29.68
C      13.53       9.97      22.55
C      14.87       7.04      18.08
C      13.60       6.90      18.69
C      13.23       7.75      19.75
C      14.11       8.75      20.21
C      15.36       8.91      19.58
C      15.75       8.05      18.53
C      11.08       6.67      19.85
C      11.44       5.87      18.75
C       9.74       6.66      20.44
C      10.55       4.88      18.16
C      11.21       4.40       3.07
C      11.73       5.54       3.69
C      12.67       5.42       4.74
C      13.09       4.15       5.19
C      12.58       3.00       4.54
C      11.63       3.12       3.49
C      12.82       7.82       4.85
C      11.94       7.93       3.76
C      13.49       8.98       5.44
C      11.51       9.20       3.18
C      10.45       8.36      33.09
C      11.19       7.33      33.70
C      10.63       6.56      34.75
C       9.33       6.81      35.21
C       8.57       7.84      34.58
C       9.14       8.61      33.54
C      12.63       5.24      34.85
C      13.17       5.97      33.77
C      13.31       4.08      35.44
C      14.47       5.71      33.18
C      13.58      -0.41      39.08
C      12.90       0.61      38.42
C      14.88      -0.93      41.04
C       3.17      18.17      40.58
C      15.45      -0.40      42.30
C       3.90      17.17      41.40
C      16.62      10.20       8.38
C      17.09       9.94       7.07
C       7.93       9.59      44.55
C       7.94      11.23       0.83
C       6.73      11.77       1.34
C       7.80      12.61       3.31
C       9.02      12.06       2.85
C       7.61      13.36       4.57
C      10.24      12.21       3.67
C      17.41       8.22      29.56
C      17.94       7.87      30.85
C      18.17       6.47      32.84
C      17.70       5.33      33.65
H      -1.98      12.16      33.44
H      -4.04      13.15      34.31
H      -4.35      12.75      35.86
H      -2.00      11.10      30.04
H      -3.99      12.97      37.95
H      -1.66      12.20       4.44
H      -2.29       9.85       2.00
H      -1.74       9.86       3.53
H      -2.51      12.54       8.10
H      -1.75       8.73      44.99
H      -4.09      11.35      40.34
H      -3.48       9.88      42.17
H      -1.78      11.56      28.14
H      -1.31      10.46      26.96
H      -2.56      13.26      10.55
H      -5.04      10.37       5.64
H      -7.87      13.84      12.31
H      -6.78      12.70      13.15
H      -5.74      14.81      12.24
H      -4.90      15.39      10.82
H      -4.17      14.19      11.93
H      -4.23      10.88      28.89
H      -2.75       7.70      34.68
H      -3.14       5.99      34.54
H      -4.24       7.09      35.41
H      17.55       9.64      27.98
H      -2.19      13.45      29.48
H      -0.68      11.29       8.36
H      -0.24      10.62      28.39
H       0.57      10.09      25.86
H       0.84      10.93      24.37
H      -1.54      15.41      13.41
H      -2.44      15.00      10.88
H      -1.84      14.38       9.38
H       2.38       7.31      27.20
H       1.47       7.77      25.78
H       2.14       8.99      26.92
H       0.06      15.59      34.45
H      -1.10      15.04      38.40
H      -1.68      17.39      32.07
H      -1.91      16.87      33.59
H       0.89      16.04      38.10
H      -2.15      17.00      30.07
H       2.73      12.37      19.40
H       2.95      13.58      23.36
H       1.95      15.58      14.50
H       0.74      15.91      18.48
H       2.68      17.16      19.35
H       2.53      17.59      20.90
H       5.13      13.10      17.01
H       4.80      13.51      18.55
H      -0.19      16.49      15.09
H       2.54      17.12      22.99
H       2.77      11.39      23.07
H       5.00      13.72      15.01
H       1.38      10.46      44.49
H       2.37      12.17       3.47
H       2.52       9.87       4.29
H       2.98       9.73       5.83
H       3.30      12.77       0.06
H       2.58       9.85       7.91
H       9.90       2.26      42.03
H      10.05       1.78      43.57
H       7.44       6.47      39.79
H       7.74       5.99      41.30
H       9.97       3.22       0.64
H       7.58       5.94      37.76
H       2.92      11.82      43.15
H       2.95      13.62      43.42
H       3.63      12.79      41.98
H       3.02      14.62      40.90
H       1.56      15.61      40.60
H       2.16      14.44      39.40
H       1.25      17.91      25.36
H      -0.32      18.06      27.20
H       2.15      10.85      25.57
H       3.97      10.48      10.31
H       4.91      11.72      12.16
H       0.03      16.30      13.14
H      -1.18      16.41      11.97
H       9.62       5.83      21.14
H       8.94       6.66      19.71
H       9.57       4.87      18.61
H      11.27       2.28       3.03
H       7.64       8.06      34.92
H       0.22      19.34      35.67
H      11.84       1.05      36.62
H       3.17      16.55      41.91
H       5.96      10.31      20.69
H       5.96       6.45      27.36
H       4.28       5.94      27.26
H       4.70       7.43      28.13
H      12.33       0.39      12.95
H       0.74      18.63      13.84
H      -2.68      18.80      19.64
H      -3.98      19.99      19.56
H       9.33      -0.06      20.41
H       7.95       1.85      19.45
H       7.96       2.93      18.06
H       9.31       2.86      19.25
H       6.65       9.04      42.94
H       4.66       9.97      43.84
H      12.49       4.24      12.11
H      13.67       4.56      16.07
H      14.74       6.52       7.22
H      14.54       7.72      11.22
H      16.59       6.66      12.06
H      16.93       6.98      13.61
H      14.25       2.52       9.73
H      14.48       2.99      11.26
H      14.50       8.82       7.82
H      16.57       6.67      15.68
H      11.70       3.52      15.70
H      14.67       2.95       7.71
H       9.84       7.01      42.16
H       9.65       6.78       1.10
H      10.65       4.11      37.21
H      11.79       3.57      41.18
H      12.76       3.07      37.78
H       9.67       9.04       0.71
H      14.19       7.94      27.12
H      13.23       8.63      31.10
H      11.14       8.91      22.23
H      10.20       8.00      26.19
H      10.05      10.29      27.08
H       9.57      10.35      28.63
H      14.85      10.38      24.79
H      14.32      10.30      26.31
H       9.23       7.49      22.81
H       9.97      10.10      30.72
H      15.16       7.48      30.70
H      14.25      10.64      22.80
H      16.66       8.17      18.07
H      16.03       9.60      19.92
H       9.64       7.63      20.88
H      11.03       3.90      18.27
H      10.40       5.08      17.10
H      12.84       2.07       4.87
H      14.39       8.58       5.87
H      12.83       9.49       6.15
H      13.87       9.69       4.71
H      11.99      10.05       3.64
H      10.43       9.26       3.30
H      11.76       9.24       2.12
H       8.58       9.35      33.09
H      12.52       3.52      35.89
H      14.10       4.39      36.14
H      13.71       3.38      34.71
H      14.97       4.86      33.63
H      15.07       6.61      33.32
H      14.38       5.50      32.12
H      15.26       0.67      42.42
H      16.54      -0.54      42.30
H      15.02      -0.92      43.15
H       4.50      17.59      42.20
H       4.56      16.58      40.77
H       7.92       9.39      21.62
H      16.78       9.10       6.57
H      15.33      12.12      12.38
H       6.59      13.71       4.69
H       8.26      14.23       4.59
H       7.85      12.71       5.42
H      10.18      12.96       4.44
H      11.10      12.44       3.04
H      10.36      11.29       4.21
H      18.40       4.98      34.41
H      17.47       4.48      33.01
H      16.85       5.67      34.22
N      -3.75      13.18      35.24
N      -1.58      10.12       2.61
N      -1.24      10.08      43.63
N      -4.97      13.10       9.38
N      -3.69      12.10       6.58
N      -3.96       8.28      32.52
N      -3.19      10.49      31.43
N      16.56      11.63      10.23
N      -2.44      13.17      39.21
N      -0.58      13.56      27.54
N       0.11      12.85      10.51
N      -1.79      16.63      32.66
N       2.58      16.87      20.27
N       4.53      13.55      17.62
N       2.32      10.07       5.21
N       9.99       2.52      42.96
N       8.02       5.98      40.38
N       0.58      11.87      42.54
N      -0.12      13.50      40.54
N       1.16      13.37      25.51
N       2.01      15.62      24.21
N      -1.23      16.02      28.65
N       1.15      14.23      12.54
N       1.58      11.03       9.18
N       3.61      13.52      13.63
N      10.55       4.65       1.92
N       8.97       6.21      36.37
N       1.05      17.29      36.59
N       5.81       7.83      25.23
N       3.51       8.90      24.38
N       3.78      10.58      21.59
N       8.11       8.28      24.15
N      -1.61      19.63      17.50
N       9.93       1.72      16.67
N      11.54       2.42      14.04
N      -0.07      17.90      16.40
N       4.44      12.03       1.40
N      16.31       6.58      12.98
N      14.36       3.26      10.34
N      10.24      10.04      28.00
N      14.15      10.10      25.38
N      11.99       7.58      20.28
N      12.68       6.00      18.24
N      15.02       6.38      16.93
N      13.82       9.36      21.38
N      13.15       6.57       5.27
N      11.42       6.79       3.25
N      13.77       4.08       6.35
N      11.39       5.57      35.27
N      12.43       6.98      33.26
N      10.97       8.86      31.95
N      14.17      -0.08      40.26
N       2.59      17.84      39.37
N      12.68       1.74      39.16
N      15.78       9.44       9.14
N       6.73      12.43       2.52
N       9.03      11.39       1.65
N       8.80       8.68      44.05
N      17.56       6.83      31.65
N      16.18       7.95      29.05
