22

Zn       3.40       7.71       0.00
Zn       6.44       7.71       0.00
C      -0.77       9.09      -0.09
C       0.80       9.09       0.06
N      -1.35       7.73       0.00
N       1.37       7.73       0.00
O       3.82       9.13      -1.44
O       6.10       9.13      -1.44
O       6.03       9.14       1.44
O       3.75       9.14       1.44
O       3.81       6.27      -1.44
O       6.09       6.27      -1.44
O       6.03       6.29       1.44
O       3.75       6.29       1.44
C       4.96       9.46      -1.98
C       4.89       9.50       1.97
C       4.95       5.78      -1.84
C       4.89       5.82       1.86
C      -0.78       7.00      -1.15
C       0.80       7.07      -1.18
C       0.80       7.03       1.17
C      -0.77       7.11       1.21
