18

C       9.14       5.77      17.50
C       9.48       5.37      16.20
C       5.35       5.66      17.30
H       6.35       4.86      14.94
H       7.51       6.26      18.85
H      10.52       5.32      15.89
C      10.23       6.12      18.47
C       8.48       5.06      15.28
C       7.79       5.89      17.86
C       7.13       5.12      15.66
C       6.79       5.54      16.95
C       8.85       4.72      13.88
O       7.93       4.37      13.04
O      10.07       4.80      13.50
O       4.46       5.15      16.53
O       4.99       6.35      18.33
O       9.94       6.69      19.56
O      11.44       5.81      18.15
