200

C      10.40       0.99      33.83
C      11.28       1.97      32.98
C      11.34      11.31      34.61
C       0.92      10.49      33.61
C       1.79      11.49      32.77
C       0.88       1.17      31.98
C      11.26      11.65      31.02
C      10.36      10.66      31.84
C      11.29       9.69      32.65
C       9.49      11.48      32.86
C       0.64       0.97      12.23
C       1.60      11.39      11.37
C      10.94      11.35      12.99
C      10.11      10.48      11.98
C      11.10       9.61      11.13
C       0.80      10.51      10.35
C      11.30       0.16       9.41
C      10.32       1.06      10.24
C       9.33       0.14      11.03
C      11.15       1.91      11.27
C       4.82       6.47      36.70
C       5.43       5.91      39.01
C       6.49       4.72      37.16
C       6.53       6.35      39.77
C       6.43       6.48      41.17
C       5.21       6.22      41.84
C       4.10       5.80      41.06
C       4.21       5.65      39.67
C       5.03       7.86      36.60
C       4.27       8.63      35.70
C       3.30       8.01      34.88
C       3.10       6.62      34.97
C       3.85       5.85      35.88
C       7.65       5.12      36.46
C       8.58       4.16      36.04
C       8.38       2.79      36.31
C       7.23       2.39      37.02
C       6.28       3.35      37.44
C       9.29       1.84      35.87
C       2.59       8.75      33.97
C       5.11       6.22      43.23
C       6.13       6.53      15.06
C       5.64       5.88      17.37
C       4.42       4.83      15.54
C       6.22       4.82      18.08
C       6.39       4.91      19.48
C       5.98       6.07      20.17
C       5.42       7.15      19.45
C       5.25       7.05      18.05
C       7.52       6.34      14.93
C       8.27       7.12      14.03
C       7.63       8.10      13.24
C       6.23       8.27      13.35
C       5.49       7.50      14.26
C       4.81       3.67      14.84
C       3.85       2.73      14.43
C       2.48       2.93      14.72
C       2.09       4.08      15.44
C       3.05       5.02      15.84
C       1.53       2.03      14.29
C       8.35       8.83      12.32
C       6.06       6.13      21.54
C       5.00       6.85       7.18
C       5.69       6.23       4.91
C       6.85       5.28       6.85
C       5.35       5.08       4.16
C       5.26       5.15       2.76
C       5.48       6.37       2.07
C       5.80       7.52       2.84
C       5.91       7.45       4.24
C       3.62       6.53       7.25
C       2.78       7.22       8.15
C       3.31       8.23       8.98
C       4.69       8.54       8.91
C       5.52       7.86       8.01
C       6.48       4.10       7.52
C       7.46       3.26       8.07
C       8.84       3.58       7.98
C       9.20       4.77       7.28
C       8.21       5.61       6.73
C       9.82       2.81       8.58
C       2.52       8.85       9.91
C       5.51       6.45       0.68
C       4.65       5.26      28.80
C       5.37       5.85      26.53
C       6.26       7.08      28.44
C       6.49       5.33      25.85
C       6.47       5.16      24.46
C       5.31       5.50      23.72
C       4.17       5.99      24.40
C       4.21       6.16      25.79
C       4.94       3.89      28.93
C       4.21       3.09      29.83
C       3.18       3.67      30.61
C       2.89       5.04      30.48
C       3.62       5.83      29.57
C       7.42       6.74      29.16
C       8.23       7.74      29.71
C       7.91       9.11      29.55
C       6.75       9.44      28.81
C       5.93       8.44      28.25
C       8.65      10.12      30.16
C       2.51       2.92      31.55
C       5.29       5.38      22.34
H      10.73      10.62      35.21
H       0.66       0.56      35.30
H       2.45       0.73      33.45
H       2.43      10.94      32.07
H       0.60       2.56      33.66
H      10.65       2.67      32.43
H       0.56      11.09      30.30
H      10.63       1.02      30.44
H       0.57       9.10      31.94
H      10.68       8.99      33.23
H       8.82       0.84      32.31
H       8.85      10.80      33.43
H      10.27       0.64      13.60
H       0.19      10.69      13.67
H       0.33       8.92      11.80
H      10.54       8.99      10.42
H       2.19      10.75      12.04
H       2.32       0.71      10.83
H      10.72      10.88       8.68
H       0.68       0.78       8.84
H       8.73      10.87      10.32
H       8.63       0.75      11.61
H       0.52       2.57      10.73
H      10.47       2.54      11.85
H       7.43       6.53      39.31
H       3.21       5.57      41.51
H       3.41       5.31      39.13
H       7.28       6.73      41.68
H       3.69       4.84      35.94
H       5.73       8.31      37.19
H       4.45       9.64      35.64
H       2.41       6.15      34.38
H       7.81       6.11      36.27
H       7.05       1.41      37.23
H       5.45       3.05      37.95
H       9.42       4.48      35.53
H       9.67       1.20      36.52
H       2.74       8.58      33.00
H       4.13       5.04       0.24
H       6.50       3.96      17.60
H       5.11       7.99      19.93
H       4.81       7.83      17.55
H       6.79       4.11      19.98
H       4.48       7.65      14.34
H       8.00       5.63      15.50
H       9.28       6.96      13.95
H       5.74       8.97      12.78
H       5.80       3.51      14.62
H       1.11       4.25      15.66
H       2.76       5.86      16.36
H       4.16       1.90      13.91
H       0.89       1.63      14.93
H       8.16       8.71      11.36
H       6.68       6.81      21.94
H       5.20       4.19       4.63
H       5.99       8.42       2.38
H       6.18       8.28       4.77
H       5.08       4.28       2.25
H       6.52       8.09       7.97
H       3.23       5.79       6.67
H       1.79       6.97       8.20
H       5.09       9.26       9.52
H       5.49       3.85       7.61
H      10.18       5.05       7.20
H       8.50       6.46       6.25
H       7.15       2.42       8.56
H      10.78       3.02       8.42
H       2.66       8.64      10.87
H       6.13       7.11       0.28
H       7.34       5.09      26.37
H       3.33       6.25      23.88
H       3.39       6.55      26.27
H       7.30       4.79      23.99
H       3.40       6.83      29.48
H       5.70       3.46      28.39
H       4.45       2.10      29.93
H       2.16       5.48      31.04
H       7.66       5.75      29.30
H       6.47      10.42      28.68
H       5.09       8.70      27.74
H       9.06       7.45      30.24
H       8.42      11.08      29.99
H       2.71       3.08      32.51
H       4.63       4.75      21.95
N       1.65       2.04      31.18
N       9.55       9.86      31.04
N       9.56       1.79      34.62
N       1.74       9.63      34.36
N       1.66       9.74       9.55
N       9.53       1.90       9.44
N       1.45       1.78      13.03
N       9.25       9.66      12.72
N       5.57       5.69      37.62
N       5.39       5.76      15.98
N       5.85       6.13       6.31
N       5.41       6.07      27.92
