21

O      -1.20       8.42       3.72
O       1.41      11.10       6.01
O       2.12       8.59       2.71
O       1.42       6.79       3.84
O      -1.34       5.57       4.61
Mn      -0.15       7.30       5.24
O      -1.53       7.97       6.75
Mn       1.73      10.18       4.02
Mn      -2.36       4.66       6.45
O       0.79       5.94       6.63
O      -3.12       6.45       7.13
O      -3.34       4.69       4.47
O      -0.73       4.74       7.76
C       1.21      10.00       6.55
C       2.07       7.35       2.92
C      -1.06       9.49       3.10
C      -2.34       5.20       3.92
C       0.44       5.16       7.55
C      -2.52       7.52       7.37
O       1.15       8.93       5.86
O      -0.21      10.38       3.34
