32

O       6.82       3.13       9.88
O       5.72      -2.50       5.56
H       7.11       0.62      10.07
H       6.31       3.34       6.16
H       8.58      -0.48       1.16
H       8.34      -2.06       5.10
H       9.01      -2.28       2.76
H       6.46       2.98       3.78
H       7.37       3.74       8.08
H       6.22      -3.24       7.32
C       6.86      -1.95       9.51
C       7.62       1.94       1.64
C       6.93       1.55       8.13
C       6.91      -0.85       8.52
C       8.22      -0.38       2.18
C       8.46      -1.40       3.08
C       8.04      -1.29       4.40
C       7.35      -0.15       4.85
C       7.18       0.94       3.95
C       6.99       0.01       6.23
C       6.85       1.32       6.73
C       6.60       2.37       5.82
C       6.69       2.15       4.45
C       6.80      -1.08       7.13
C       7.01       0.46       9.00
C       7.60       0.81       2.59
C       7.05       2.92       8.70
C       6.25      -2.39       6.66
O       6.45       2.37       1.17
O       5.64      -2.38       9.82
O       8.83       2.38       1.33
O       8.03      -2.37       9.98
