30

H       5.06      11.53       4.14
H       5.74       9.93       0.21
H       2.57      12.81       0.89
H       2.22      12.81      -1.12
H       2.33      10.47      -4.71
H       4.72       9.29      -1.34
C       4.81      11.49       3.08
C       6.54       9.75       2.77
C       5.49      10.64       2.21
C       5.16      10.59       0.86
C       3.60      11.12      -1.04
C       3.79      12.30       2.57
C       4.07      11.32       0.35
C       3.41      12.20       1.22
C       2.65      11.96      -1.65
C       1.05      12.52      -3.47
C       3.61       9.78      -3.09
C       4.11       8.58      -3.79
C       2.69      10.65      -3.70
C       4.04      10.01      -1.78
C       2.18      11.71      -2.95
C       3.08      13.23       3.48
O       0.59      12.30      -4.64
O       0.48      13.39      -2.73
O       6.35       9.26       3.92
O       7.59       9.52       2.04
O       2.12      13.93       3.04
O       3.49      13.27       4.72
O       4.54       7.59      -3.00
O       4.18       8.44      -5.02
