30

H       7.88       5.33      13.75
H       7.21       6.93      17.67
H      10.37       4.05      16.99
H      10.73       4.05      19.01
H      10.61       6.38      22.60
H       8.23       7.57      19.23
C       8.14       5.36      14.81
C       6.40       7.10      15.12
C       7.45       6.21      15.67
C       7.79       6.27      17.03
C       9.35       5.74      18.93
C       9.15       4.55      15.32
C       8.88       5.53      17.53
C       9.53       4.65      16.66
C      10.30       4.90      19.53
C      11.90       4.34      21.35
C       9.33       7.07      20.98
C       8.84       8.28      21.68
C      10.25       6.21      21.59
C       8.91       6.85      19.67
C      10.76       5.15      20.83
C       9.86       3.62      14.41
O      12.36       4.56      22.53
O      12.47       3.47      20.61
O       6.59       7.59      13.97
O       5.35       7.33      15.84
O      10.82       2.93      14.84
O       9.46       3.59      13.17
O       8.40       9.26      20.88
O       8.76       8.42      22.91
