30

H      11.54      11.23       4.81
H      12.21      12.84       8.73
H       9.04       9.95       8.05
H       8.69       9.95      10.07
H       8.81      12.29      13.66
H      11.19      13.48      10.29
C      11.28      11.27       5.86
C      13.02      13.01       6.18
C      11.97      12.12       6.73
C      11.63      12.18       8.09
C      10.07      11.64       9.99
C      10.27      10.46       6.37
C      10.54      11.44       8.59
C       9.88      10.56       7.72
C       9.12      10.81      10.59
C       7.52      10.24      12.41
C      10.08      12.98      12.04
C      10.58      14.19      12.73
C       9.16      12.12      12.64
C      10.51      12.75      10.72
C       8.65      11.05      11.89
C       9.56       9.53       5.46
O       7.06      10.47      13.59
O       6.95       9.37      11.67
O      12.83      13.50       5.03
O      14.07      13.24       6.90
O       8.59       8.84       5.90
O       9.96       9.49       4.23
O      11.01      15.17      11.94
O      10.66      14.33      13.97
