20

La      -1.82       9.43       1.67
La      -5.81       8.95       2.84
C      -3.54      11.83       2.28
C      -4.01       6.62       2.06
C      -2.99       8.15       4.75
C       1.01      10.26      -0.25
C       0.45      11.08       4.10
C       0.02       7.38       0.50
O      -4.04      10.67       2.37
O      -2.30      11.91       1.99
O      -5.02       6.40       2.77
O      -3.77       7.84       1.64
O      -2.01       8.36       3.98
O      -4.13       8.68       4.60
O       0.23       7.82       1.70
O      -1.01       7.66      -0.12
O      -5.99       9.85       0.43
O      -0.13      10.51       0.23
O      -0.06      10.31       3.22
O      -6.28      10.95       4.36
