14

C       2.91       7.72       8.24
Li       2.48       6.07       6.03
Li       4.88       6.16       7.72
C       5.21       4.70      10.41
C       3.37       4.08       9.15
N       2.89       7.40       4.49
N       4.47       4.83       9.26
O       3.33       4.26       6.05
O       5.16       5.55       5.80
O       4.03       7.98       7.71
O       2.20       6.68       7.95
C       4.45       4.51       5.51
C       2.16       7.53       3.35
C       3.99       8.15       4.60
