168

Mn      -2.54       7.30       1.57
Mn      -1.07      11.07       8.19
Mn      -1.79       9.14       4.86
Mn       3.63       2.27      18.02
Mn       2.09      -1.48      11.36
Mn       2.87       0.44      14.71
Mn       2.52       6.80       0.01
Mn       7.15      -2.00       9.80
H       0.77       7.44       7.58
H       1.52       5.07       7.64
H       3.23       5.72      11.54
H       2.50       8.10      11.46
H       4.79       1.56       7.83
H       2.31       3.52      11.60
H       4.56       5.88       8.56
H       3.79       2.62       5.84
H       4.64       4.02       3.96
H       5.20       7.30       6.65
H       3.50      -2.74      17.75
H       4.81       3.15       1.88
H       5.78       2.10       3.87
H       4.98       0.66       5.74
H       0.46      10.98       3.04
H       1.04      12.43       1.14
H       8.15      -0.30       2.11
H       4.79      10.94       2.17
H      -0.81       6.27      17.84
H      -1.55       8.66      17.76
H       0.29       2.19      12.03
H      -0.46       4.56      11.96
H      -2.17       3.89       8.07
H      -1.44       1.50       8.17
H      -3.76       8.04      11.73
H      -1.24       6.08       7.99
H      -3.53       3.74      11.01
H      -2.71       6.96      13.75
H      -3.50       5.53      15.63
H       5.05       2.29      12.90
H      -2.42      12.33       1.82
H      -3.72       6.42      17.70
H      -4.70       7.47      15.71
H      -3.89       8.90      13.84
H       0.66      -1.41      16.54
H       0.08      -2.86      18.44
H      -7.04       9.88      17.45
H      -3.69      -1.36      17.39
H       1.89       3.31       1.73
H       2.63       0.93       1.81
C       1.18       9.34       9.43
C       1.59       7.92       9.52
C       1.30       7.05       8.45
C       1.72       5.73       8.49
C       2.44       5.24       9.59
C       2.67       6.09      10.68
C       2.27       7.42      10.64
C       2.99       3.87       9.60
C       3.73       3.31       8.52
C       4.19       1.99       8.63
C       3.95       1.20       9.77
C       3.26       1.78      10.85
C       2.81       3.09      10.74
C       3.04       1.11      12.16
C       4.45      -0.22       9.73
C       4.54       5.47       7.55
C       4.14       4.13       7.35
C       4.15       3.63       6.03
C       4.61       4.42       4.97
C       5.02       5.74       5.19
C       4.93       6.26       6.49
C       5.61       6.59       4.12
C       5.22       4.98       0.01
C       1.77      -0.47      19.57
C       2.51      -1.01      18.50
C       2.96      -2.33      18.60
C       6.70       0.90       0.14
C       5.92       1.43       1.20
C       5.44       2.75       1.09
C       2.75      -0.33      17.20
C       5.51       0.58       2.35
C       5.46       1.08       3.67
C       5.03       0.27       4.73
C       0.55      12.54       4.50
C       0.67      12.03       3.21
C       1.03      12.84       2.15
C       3.15      13.15       0.14
C       3.85      12.66       1.26
C       4.27      11.34       1.30
C       4.00      10.48       0.22
C      -0.60       6.95      18.67
C      -1.01       8.28      18.62
C       4.39       9.05       0.33
C      -0.02      11.68       5.57
C      -0.15       0.28      10.22
C      -0.54       1.70      10.11
C      -0.24       2.58      11.17
C      -0.66       3.90      11.12
C      -1.38       4.38      10.01
C      -1.61       3.52       8.92
C      -1.22       2.19       8.98
C      -1.94       5.74       9.99
C      -2.69       6.30      11.06
C      -3.16       7.62      10.94
C      -2.93       8.40       9.79
C      -2.22       7.82       8.72
C      -1.75       6.51       8.84
C      -1.99       8.47       7.40
C      -3.43       9.82       9.81
C      -3.49       4.14      12.02
C      -3.08       5.47      12.23
C      -3.07       5.95      13.55
C      -3.49       5.15      14.61
C      -3.90       3.82      14.39
C      -3.86       3.32      13.08
C      -4.47       2.96      15.46
C      -0.18       8.62       0.01
C      -0.69      10.04       0.02
C      -1.42      10.60       1.08
C      -1.88      11.91       0.98
C      -5.61       8.68      19.44
C      -4.82       8.15      18.38
C      -4.36       6.82      18.49
C      -1.66       9.92       2.38
C      -4.41       8.99      17.23
C      -4.37       8.49      15.91
C      -3.94       9.30      14.85
C       0.54      -2.97      15.08
C       0.44      -2.46      16.38
C       0.08      -3.28      17.44
C      -2.06      -3.57      19.43
C      -2.75      -3.08      18.30
C      -3.17      -1.76      18.26
C      -2.91      -0.90      19.34
C       1.69       2.64       0.90
C       2.09       1.30       0.95
C      -3.30       0.53      19.23
C       1.10      -2.10      14.00
O       0.34       9.65       8.52
O       1.70      10.20      10.24
O       2.52       1.77      13.11
O       3.44      -0.11      12.34
O       3.55      -1.15       9.74
O       5.68      -0.42       9.60
O      -3.38       7.83       4.33
O       5.95       6.01       3.01
O       3.98       5.17       0.13
O       6.12       5.92       0.00
O       2.30       0.88      17.00
O       3.34      -0.96      16.26
O      -0.11       4.17      19.12
O       5.23       8.75       1.23
O      -0.17      10.43       5.34
O       3.75      -1.37       6.68
O       0.68      -0.03      11.13
O      -0.68      -0.58       9.41
O      -1.42       7.81       6.48
O      -2.40       9.68       7.19
O      -2.52      10.75       9.79
O      -4.67      10.02       9.92
O       4.50       1.72      15.22
O      -4.77       3.52      16.59
O      -2.89       4.41      19.52
O      -1.08       7.68       0.00
O      -1.21       8.72       2.59
O      -2.24      10.55       3.32
O       1.17       5.41       0.45
O      -4.13       0.84      18.31
O       1.26      -0.85      14.24
O      -2.71      10.96      12.88
