10

H      -2.15       2.77       6.63
H       0.55       1.27       6.66
O      -0.86       4.99       6.89
O       1.03       3.81       6.62
O      -0.80      -0.93       6.93
O      -2.64       0.27       6.55
C      -0.24       3.87       6.70
C      -1.07       2.64       6.62
C      -1.38       0.21       6.69
C      -0.53       1.41       6.63
