10

H       6.80       3.01       0.99
H       9.21       1.09       0.99
O       5.26       0.97       0.74
O       7.07      -0.32       1.02
O      10.76       3.14       0.74
O       8.95       4.42       1.03
C       6.53       0.83       0.93
C       7.33       2.07       1.01
C       9.49       3.28       0.93
C       8.68       2.04       1.01
