20

H       0.58       3.55       5.68
H       0.57       2.52       3.45
H       5.18       2.50       3.50
H       5.66       0.86       4.28
H       5.67       1.92       6.45
C       2.50       3.44       7.59
C       3.59       2.02       5.81
C       2.52       2.80       6.25
C       1.41       2.93       5.39
C       1.41       2.34       4.11
C       2.52       1.62       3.65
C       3.59       1.44       4.54
C       5.03       1.77       4.33
C       5.02       2.42       5.70
C       2.56       1.06       2.28
O       1.33       3.59       8.13
O       3.63       3.75       8.17
O       1.44       0.74       1.70
O       3.73       0.89       1.74
F       5.16       3.79       5.64
