22

O       2.80       7.90      14.47
O       0.90       8.75      15.34
C       1.98       8.87      14.72
C       2.41      10.24      14.28
C       3.60      10.48      13.60
C       3.36      12.77      13.77
C       2.16      12.62      14.46
C       1.63      11.34      14.67
C       3.92      14.12      13.60
C       5.10      14.37      12.89
C       5.65      15.66      12.88
C       3.93      16.46      14.23
C       3.31      15.22      14.25
H       4.24       9.64      13.34
H       1.61      13.48      14.82
H       0.74      11.19      15.26
H       5.59      13.56      12.36
H       6.49      15.93      12.25
H       3.49      17.28      14.80
H       2.51      15.10      14.98
N       4.07      11.71      13.28
N       5.06      16.70      13.55
