22

O       1.17       4.36      30.63
O       3.08       3.51      31.49
C       0.66      -2.95      30.41
H      -0.27       2.62      29.49
H       2.36      -1.21      30.97
H       3.23       1.07      31.42
H      -1.61      -1.30      28.51
H      -2.52      -3.67      28.41
H       0.48      -5.02      30.95
H       1.46      -2.84      31.13
N      -0.10       0.55      29.44
N      -1.09      -4.44      29.70
C       1.99       3.39      30.88
C       1.57       2.02      30.44
C       0.37       1.78      29.75
C       0.61      -0.51      29.92
C       1.82      -0.35      30.61
C       2.34       0.92      30.82
C       0.05      -1.86      29.75
C      -1.12      -2.11      29.04
C      -1.68      -3.40      29.04
C       0.04      -4.20      30.38
