22

C       1.77      18.62      10.96
C       2.46      18.46       9.66
C       1.89      19.07       8.52
C       3.60      18.30       7.16
C       4.24      17.66       8.24
C       3.64      17.73       9.51
C       4.14      18.27       5.79
O       2.42      18.22      12.03
O       0.63      19.14      10.97
C       3.47      18.97       4.76
C       5.32      17.61       5.45
C       4.02      18.97       3.47
C       5.79      17.64       4.13
H       1.04      19.73       8.64
H       5.08      16.99       8.08
H       4.05      17.22      10.37
H       2.62      19.60       5.00
H       3.54      19.54       2.68
H       6.61      17.01       3.81
H       5.91      17.09       6.19
N       2.45      19.00       7.30
N       5.13      18.30       3.14
