22

O       4.24       4.21      16.15
O       2.64       4.28      14.55
C       3.62       3.73      15.16
C       4.05       2.39      14.66
C       5.28       1.90      15.10
C       5.06      -0.08      13.95
C       3.88       0.37      13.35
C       3.34       1.61      13.73
C       5.60      -1.43      13.75
C       6.79      -1.78      14.38
C       7.30      -3.08      14.26
C       5.52      -3.69      12.89
C       4.95      -2.42      12.98
H       5.91       2.56      15.69
H       3.36      -0.24      12.62
H       2.46       2.01      13.24
H       7.28      -1.05      15.01
H       8.13      -3.42      14.86
H       5.06      -4.49      12.31
H       4.09      -2.20      12.35
N       5.77       0.70      14.81
N       6.65      -4.03      13.54
