22

O       0.45      16.62      17.83
O       2.36      15.76      16.97
C       0.85      14.28      18.03
H      -0.99      14.87      18.97
H       1.64      11.04      17.49
H       2.51      13.32      17.04
H      -2.33      10.96      19.95
C      -0.11      11.74      18.54
H      -0.24       7.24      17.51
C       1.62      13.17      17.64
C       1.28      15.64      17.59
C      -1.84      10.14      19.42
C      -2.40       8.85      19.42
C      -0.68       8.06      18.08
C      -0.06       9.30      18.05
C      -0.35      14.03      18.71
H      -3.24       8.58      20.05
C       1.10      11.90      17.85
H       0.74       9.41      17.33
C      -0.67      10.40      18.71
N      -0.81      12.81      19.02
N      -1.81       7.82      18.76
