14

O       2.18       2.35       6.00
O       2.20       3.71       7.81
O       4.41       7.12       8.00
O       2.43       6.43       7.23
H       7.15       5.38       4.77
N       5.61       5.66       6.15
N       4.46       3.35       5.11
H       6.03       3.35       3.73
C       2.63       3.35       6.73
C       3.84       4.04       6.10
C       4.39       5.25       6.55
C       3.68       6.31       7.36
C       6.20       5.00       5.14
C       5.59       3.86       4.59
