14

C       1.41       1.09       9.48
C       0.43       0.89       8.50
H       2.12       1.92       9.46
H       0.38       1.58       7.66
N       1.52       0.20      10.48
N      -0.43      -0.15       8.53
O       0.08      -2.76      11.78
O       1.76      -1.44      12.56
O      -2.42      -1.99      10.11
O      -0.86      -3.24       9.08
C      -1.29      -2.15       9.66
C      -0.32      -0.99       9.58
C       0.66      -0.82      10.56
C       0.83      -1.78      11.71
