19

In       2.33       1.93      15.30
In      -1.29       2.32      16.24
C       3.18       2.25      12.86
C      -0.85       0.19      17.69
C       2.84       0.04      17.06
C       4.79       4.63      17.24
C      -0.34       1.99      13.51
O       3.56       1.23      13.52
O       2.48       3.18      13.40
O      -0.97       1.32      18.26
O      -1.09       0.08      16.43
O       2.84       1.22      17.53
O       2.44      -0.20      15.86
O       3.93       4.20      16.32
O      -1.88       4.05      17.54
O       0.47       1.23      14.13
O      -1.22       2.72      14.11
O       0.76       3.17      16.27
O       4.33       2.94      15.72
