16

V       0.45      10.06       8.58
O      -1.11      10.16       9.28
O       2.39       9.92       7.56
V      -3.05      10.02       8.26
C       2.42      12.05       9.92
C      -1.08       8.03       6.92
O      -3.46      11.58       9.45
O      -3.42       8.84       9.85
C       2.42       8.46      10.39
O       0.04       8.50       7.39
O       1.19       8.87      10.01
O      -2.31      11.21       6.82
O       1.23      11.59       9.61
O      -2.27       8.49       7.23
O       0.08      11.24       6.98
C      -1.08      11.62       6.45
