22

Gd      15.04      13.49      23.78
Gd      18.56      15.41      23.86
O      14.04      14.98      24.94
O      13.20      12.47      22.82
O      15.07      12.53      21.58
C      13.58      16.23      25.05
C      13.83      12.22      21.71
O      15.86      12.24      25.60
O      17.39      13.56      24.69
C      13.07      11.60      20.59
O      19.56      13.93      22.69
O      20.40      16.44      24.82
O      18.53      16.38      26.06
C      17.82      12.71      26.90
C      16.99      12.80      25.68
C      20.02      12.68      22.59
O      17.74      16.67      22.03
O      16.21      15.35      22.95
C      19.77      16.69      25.93
C      20.53      17.31      27.04
C      15.78      16.20      20.74
C      16.61      16.11      21.96
