22

Gd       6.46       8.34      11.96
Gd       3.10       6.11      11.86
O       7.20       7.01      10.16
O       5.30       6.30      11.05
O       5.61       9.96      10.85
O       8.26       9.42      12.92
O       7.26       7.86      14.16
C       5.87       5.51       8.85
C       6.17       6.28      10.07
C       4.66      10.89      10.77
O       2.35       7.44      13.66
O       4.26       8.16      12.77
O       3.95       4.49      12.97
C       8.15       8.78      14.03
C       9.04       9.16      15.16
O       1.30       5.03      10.90
O       2.30       6.60       9.65
C       3.69       8.94      14.97
C       3.39       8.17      13.75
C       4.90       3.57      13.05
C       1.41       5.68       9.79
C       0.52       5.29       8.66
