144

Ni      -2.92      -0.46      14.04
Ni       4.16       7.40      12.81
Ni       8.66       6.85       3.93
Ni       1.58      -1.00       5.05
H       1.27       4.53       2.68
H       1.50       3.48       0.42
H       1.37       0.21       2.37
H       1.18       0.42       0.31
H       1.21       4.25       5.14
H       1.28       1.91       6.12
H       8.57       5.60       1.31
H       5.32       0.40      17.25
H       3.98      -2.35      17.22
H       8.25       4.00       5.08
H       8.09       1.66       4.17
H       8.13       1.31       1.71
H       3.12       6.60       6.26
H       4.17       6.47       8.52
H       7.42       6.91       6.60
H       7.18       7.11       8.63
H       3.41       6.68       3.80
H       5.75       6.84       2.84
H       2.83      -0.77       7.66
H       4.16      -0.89       9.60
H       6.77       0.73       9.65
H       4.36      -0.31       3.87
H       6.67       0.10       4.77
H       7.05       0.11       7.22
H       4.46       1.88      15.24
H       4.27       2.90      17.49
H       4.46       6.21      15.55
H       4.64       5.95      17.63
H       4.53       2.15      12.78
H       4.50       4.50      11.81
H      -2.85       0.74      16.63
H       0.39       5.96       0.66
H       1.79       8.69       0.69
H      -2.49       2.29      12.83
H      -2.31       4.64      13.73
H      -2.36       5.03      16.17
H       2.59      -0.19      11.62
H       1.55      -0.11       9.37
H      -1.71      -0.63      11.32
H      -1.45      -0.79       9.23
H       2.33      -0.29      14.08
H      -0.01      -0.49      15.06
H       2.98       7.20      10.23
H       1.60       7.33       8.29
H      -0.95       5.62       8.30
H       1.48       6.68      14.03
H      -0.84       6.27      13.14
H      -1.23       6.27      10.69
H       7.62      -2.84      13.40
H      -1.92       9.28       4.49
C      -2.14      -2.29      16.38
C       4.74      -1.33      15.42
C       1.31       3.53       3.11
C       1.34       2.38       2.29
C       1.38       2.48       0.83
C       1.34       1.14       2.93
C      -2.21      -2.43      17.87
C       1.27       3.38       4.50
C       1.30       2.10       5.05
C       8.30       3.44       1.27
C       8.44       4.69       1.89
C       4.88      -0.47      17.72
C       4.47      -1.44      16.88
C       8.25       3.80       4.02
C       8.14       2.51       3.49
C       8.16       2.32       2.11
C       6.06       6.83      10.47
C       5.80      -0.14      11.44
C       4.12       6.66       5.83
C       5.26       6.73       6.66
C       5.15       6.69       8.12
C       6.50       6.85       6.03
C       6.17       6.88       8.98
C       4.28       6.71       4.45
C       5.56       6.80       3.91
C       4.95      -0.28       7.68
C       3.71      -0.55       7.07
C       4.99      -0.35       9.13
C       5.91       0.15       9.98
C       4.56      -0.28       4.94
C       5.84      -0.04       5.45
C       6.04      -0.02       6.83
C       7.99       8.65       1.55
C       0.97       7.70       2.49
C       4.45       2.88      14.81
C       4.43       4.02      15.63
C       4.39       3.91      17.09
C       4.46       5.28      14.99
C       8.00       8.81       0.06
C       4.49       3.03      13.43
C       4.48       4.31      12.88
C      -2.55       2.90      16.64
C      -2.70       1.64      16.04
C       0.86       6.83       0.19
C       1.27       7.79       1.03
C      -2.48       2.51      13.90
C      -2.37       3.80      14.41
C      -2.39       4.01      15.79
C      -0.28      -0.52       7.41
C      -0.06       6.54       6.48
C       1.59      -0.28      12.05
C       0.46      -0.38      11.23
C       0.56      -0.33       9.77
C      -0.78      -0.53      11.87
C      -0.44      -0.55       8.90
C       1.45      -0.33      13.44
C       0.18      -0.46      13.99
C       0.86       6.69      10.23
C       2.10       6.96      10.82
C       0.80       6.77       8.78
C      -0.12       6.24       7.95
C       1.27       6.66      12.96
C      -0.01       6.41      12.45
C      -0.22       6.41      11.08
N       1.34       0.99       4.27
N       8.39       4.88       3.22
N       6.66       6.87       4.70
N       3.51      -0.53       5.74
N       4.45       5.41      13.66
N      -2.64       1.44      14.72
N      -0.92      -0.54      13.21
N       2.31       6.92      12.15
O      -2.17      -1.07      15.94
O       5.34      -0.29      14.98
O      -2.06      -3.33      15.69
O       4.33      -2.32      14.71
O       4.85       6.71      10.94
O       4.82      -0.84      11.85
O       7.11       6.90      11.15
O       6.74       0.36      12.16
O       7.90       7.45       2.01
O       0.34       6.69       2.93
O       8.08       9.71       2.23
O       1.38       8.71       3.18
O       0.92      -0.31       6.96
O       0.87       7.29       6.05
O      -1.31      -0.71       6.71
O      -1.01       6.02       5.79
O       6.89      -2.19      13.42
O      -1.20       8.62       4.49
