23

Zn       8.96      27.35      18.00
N      10.43      30.25      21.29
Zn       8.93      30.27      23.61
N      10.48      26.76      19.09
Zn       8.95      28.81      20.80
N      10.44      27.35      20.34
O       8.99      28.63      16.53
O       8.90      28.99      25.07
C       6.49      25.83      19.12
C       6.54      26.75      21.06
C       6.47      31.81      22.48
C       6.53      30.89      20.54
C      11.40      31.80      22.49
C      11.35      30.88      20.55
C      11.42      25.82      19.13
C      11.36      26.73      21.07
C       8.99      29.69      17.29
C       8.90      27.93      24.31
N       7.41      26.79      19.07
N       7.46      27.38      20.32
N       7.41      30.86      22.52
N       7.45      30.27      21.27
N      10.48      30.84      22.54
