22

C       3.81      17.65      15.24
C       5.20      17.75      13.24
C       5.18      19.11      13.28
C       3.23      19.67      16.44
C       2.47      18.93      17.33
H       5.66      19.63      12.46
C       2.33      17.55      17.16
H       1.96      19.42      18.15
C       2.99      16.92      16.12
H       2.83      15.85      16.00
C       4.60      17.00      14.26
H       5.76      17.29      12.44
H       3.35      20.72      16.67
H       1.70      16.98      17.83
C       4.16      21.18      13.96
C       5.16      15.68      14.48
O       6.00      15.27      13.61
O       3.24      21.75      14.65
O       4.52      21.62      12.82
O       5.08      15.17      15.65
C       4.50      19.80      14.29
C       3.85      19.06      15.33
