22

C       3.72       0.84       3.89
C       4.82       0.81       6.04
C       4.78      -0.56       6.06
C       3.23      -1.21       2.69
C       2.48      -0.49       1.76
H       5.07      -1.04       6.98
C       2.30       0.88       1.92
H       2.02      -1.00       0.94
C       2.94       1.55       2.96
C       4.43       1.51       4.91
H       2.77       2.61       3.06
H       5.24       1.33       6.90
H       3.39      -2.26       2.48
H       1.67       1.43       1.24
C       4.10      -2.72       5.19
C       5.12       2.77       4.65
O       5.99       3.16       5.51
O       3.23      -3.33       4.47
O       4.52      -3.19       6.30
O       5.05       3.26       3.47
C       4.32      -1.29       4.94
C       3.77      -0.58       3.84
