24

O      10.06      12.31      15.85
O      10.59       5.97      13.04
O       8.42       6.68      11.88
O       9.64       8.40      11.10
H      11.69      10.87      16.42
H      12.79       9.28      17.84
C       9.54      10.30      14.77
H      11.79       7.03      18.26
C      10.14       9.49      15.76
H       9.86       6.33      16.97
H       8.57      10.27      12.83
C       9.84       8.13      15.76
C       9.20       8.32      13.43
C       9.01       9.68      13.63
C      11.23       9.91      16.54
C      11.87       9.00      17.37
C      11.32       7.74      17.59
C      10.20       7.35      16.87
C       9.71       7.54      14.50
N       9.06       7.80      12.10
C       9.28      11.71      15.01
C      10.62       6.42      14.22
O      11.53       6.09      15.08
O       8.76      12.39      14.02
