20

O      11.59       7.01       5.55
O       9.95       5.54       4.96
H       7.20       5.65       8.97
H      11.97       6.72       8.07
O       8.67       7.28      11.88
O       7.81       5.22      11.60
O      12.36       7.43      10.63
O      11.30       5.75      11.69
O       7.56       6.87       5.61
O       6.93       4.81       6.29
C      10.06       6.27       7.20
C       8.70       5.96       7.45
C       8.24       5.89       8.77
C       9.10       6.16       9.84
C      10.46       6.45       9.59
C      10.92       6.51       8.27
C      10.59       6.28       5.80
C       7.69       5.85       6.35
C       8.52       6.23      11.22
C      11.45       6.59      10.71
