20

O       6.53      11.20      14.27
O       5.06       9.56      13.68
O       6.41       7.16      14.33
O       4.36       6.53      15.00
O       6.82       8.28      20.60
O       4.76       7.42      20.32
O       6.95      11.97      19.35
O       5.27      10.91      20.40
H       5.19       6.80      17.69
H       6.24      11.58      16.78
C       5.80       9.66      15.92
C       5.50       8.30      16.17
C       5.43       7.84      17.49
C       5.69       8.71      18.56
C       5.97      10.07      18.31
C       6.03      10.53      16.98
C       5.81      10.20      14.52
C       5.39       7.30      15.07
C       5.77       8.13      19.94
C       6.11      11.05      19.42
