20

H       7.21      -0.00       9.10
H      12.06      -0.77       8.24
O      11.69      -0.60       5.60
O      10.43       1.29       5.61
O       7.86      -0.19       5.48
O       7.20       1.55       6.80
O       7.58      -0.10      11.69
O       8.70      -2.06      11.75
O      11.33      -0.40      11.87
O      12.26      -2.07      10.70
C      10.18      -0.20       7.38
C       8.79       0.03       7.63
C       8.26      -0.19       8.90
C       9.08      -0.62       9.94
C      10.47      -0.83       9.71
C      11.00      -0.62       8.43
C      10.80       0.18       6.07
C       7.90       0.49       6.53
C       8.44      -0.95      11.25
C      11.41      -1.16      10.83
