12

C       6.98       5.15       5.47
C       7.56       6.92       2.51
H       7.14       2.59       1.90
N       7.05       3.46       3.72
N       7.36       4.60       1.83
O       7.01       6.34       5.84
O       6.79       4.18       6.26
O       7.82       7.79       3.36
O       7.46       7.19       1.27
C       7.17       3.40       2.39
C       7.15       4.79       4.04
C       7.35       5.49       2.87
