12

C      10.47      13.49      10.85
Cd       8.96      13.69      13.28
Cd      12.08      12.85      13.73
O       6.59      14.27      13.48
O       8.16      15.80      13.22
C      10.10      10.60      13.67
O       9.26      11.48      13.29
O      11.34      10.80      13.96
C       6.93      15.54      13.39
O      10.95      13.80      12.04
O      10.71      14.05      15.03
C       9.85      13.86      16.00
