27

Co       0.85       0.80      22.99
Co      -2.07      -0.83      24.51
C       3.60      -0.64      22.58
C       3.77       1.69      22.31
C      -4.19       0.30      22.67
C       0.68       3.22      24.91
C      -0.44      -1.80      21.98
C       0.74      -1.12      25.53
N      -3.15       0.52      26.04
N      -2.97      -2.66      25.48
N       0.60       2.19      21.25
N       3.02       0.57      22.46
H      -2.10       1.26      22.94
H      -1.18       1.91      24.15
C      -2.46       1.33      26.88
C      -4.49       0.73      25.99
O      -1.30       1.10      23.56
O       0.32      -0.81      21.80
O      -1.16      -2.07      22.99
O       1.35      -0.59      24.59
O      -0.49      -0.92      25.84
O      -3.77      -0.75      23.29
O       1.41       2.48      24.19
C      -2.57      -3.06      26.70
C      -4.04      -3.32      24.95
C       1.14       1.88      20.04
C       0.02       3.40      21.39
