27

Co       6.61       6.07       3.64
Co       3.65       7.67       2.12
H       3.71       5.62       3.69
H       4.62       4.98       2.45
C       6.89       5.00       6.56
C       5.76       3.47       5.20
C       3.31       5.54      -0.22
C       1.27       6.15       0.67
C       3.22       9.88      -0.05
C       1.74      10.14       1.71
N       8.77       6.28       4.15
N       6.37       4.68       5.35
N       2.61       6.34       0.60
N       2.79       9.47       1.16
O       4.48       5.80       3.04
O       6.08       7.64       4.83
O       4.60       8.91       3.61
O       7.09       7.40       2.04
O       5.22       7.80       0.80
O       1.97       7.57       3.31
O       7.16       4.40       2.45
C       9.34       7.50       4.03
C       9.51       5.16       4.31
C       1.54       6.53       3.96
C       6.42       3.66       1.73
C       5.31       8.65       4.64
C       6.45       7.98       1.13
