756

C      10.88      32.58      20.11
C      11.99      32.96      19.31
C      19.78      53.05      19.45
C      19.42      51.88      18.74
C      18.37      51.05      19.18
C      17.64      51.33      20.36
C      17.94      52.57      21.00
C      18.99      53.39      20.57
C      16.50      50.45      20.87
C      15.28      51.24      20.38
C      14.53      52.10      21.22
C      13.44      52.85      20.73
C      13.07      52.80      19.37
C      13.86      52.01      18.50
C      14.95      51.26      19.00
C      16.55      49.01      20.36
C      16.52      50.20      22.38
C      15.38      49.64      23.03
C      15.43      49.16      24.35
C      16.64      49.19      25.07
C      17.77      49.78      24.47
C      17.71      50.25      23.15
C      17.75      48.26      20.49
C      17.79      46.87      20.28
C      16.63      46.15      19.92
C      15.43      46.88      19.76
C      15.39      48.27      19.99
C      19.79      33.71      19.50
C      19.43      33.68      20.87
C      18.37      34.47      21.36
C      17.65      35.36      20.53
C      17.95      35.30      19.14
C      19.00      34.51      18.64
C      16.50      36.23      21.04
C      15.29      35.42      20.60
C      14.53      35.71      19.43
C      13.45      34.92      19.03
C      13.08      33.77      19.76
C      13.87      33.41      20.87
C      14.95      34.21      21.27
C      16.56      36.52      22.54
C      16.52      37.67      20.50
C      15.38      38.51      20.66
C      15.43      39.89      20.42
C      16.64      40.51      20.03
C      17.77      39.69      19.83
C      17.72      38.31      20.07
C      17.76      37.01      23.13
C      17.80      37.51      24.44
C      16.64      37.57      25.24
C      15.44      37.06      24.68
C      15.40      36.57      23.36
C      19.80      43.42      36.22
C      19.44      44.62      35.56
C      18.39      44.65      34.63
C      17.66      43.49      34.28
C      17.96      42.31      35.03
C      19.02      42.28      35.96
C      16.51      43.49      33.27
C      15.30      43.52      34.19
C      14.55      42.36      34.52
C      13.46      42.41      35.42
C      13.10      43.62      36.05
C      13.89      44.76      35.80
C      14.97      44.71      34.91
C      16.57      44.65      32.27
C      16.53      42.31      32.29
C      15.39      42.03      31.49
C      15.44      41.12      30.41
C      16.65      40.48      30.07
C      17.78      40.71      30.88
C      17.73      41.62      31.95
C      17.77      44.91      31.55
C      17.81      45.80      30.45
C      16.64      46.46      30.01
C      15.44      46.23      30.73
C      15.41      45.34      31.82
C       8.82      11.36      17.74
C       8.45      12.53      18.45
C       7.40      13.35      18.02
C       6.67      13.07      16.83
C       6.97      11.84      16.19
C       8.03      11.02      16.62
C       5.53      13.95      16.33
C       4.31      13.16      16.82
C       3.56      12.30      15.97
C       2.48      11.55      16.46
C       2.11      11.61      17.82
C       2.90      12.39      18.69
C       3.98      13.14      18.20
C       5.58      15.40      16.83
C       5.55      14.20      14.81
C       4.41      14.76      14.17
C       4.46      15.25      12.85
C       5.67      15.22      12.12
C       6.80      14.63      12.72
C       6.74      14.16      14.04
C       6.78      16.15      16.70
C       6.82      17.54      16.92
C       5.65      18.26      17.27
C       4.46      17.52      17.43
C       4.42      16.13      17.20
C       8.79      30.70      17.69
C       8.43      30.73      16.33
C       7.38      29.94      15.83
C       6.65      29.05      16.67
C       6.95      29.11      18.06
C       8.00      29.90      18.56
C       5.51      28.17      16.16
C       4.29      28.99      16.59
C       3.54      28.69      17.76
C       2.45      29.49      18.17
C       2.08      30.64      17.44
C       2.87      31.00      16.33
C       3.96      30.20      15.92
C       5.56      27.89      14.65
C       5.53      26.74      16.70
C       4.39      25.89      16.54
C       4.44      24.51      16.78
C       5.66      23.90      17.16
C       6.78      24.71      17.37
C       6.72      26.10      17.13
C       6.76      27.40      14.07
C       6.81      26.89      12.76
C       5.64      26.84      11.96
C       4.44      27.34      12.51
C       4.41      27.84      13.83
C       8.81      20.99       0.97
C       8.45      19.79       1.63
C       7.39      19.75       2.56
C       6.66      20.92       2.91
C       6.97      22.09       2.17
C       8.02      22.13       1.24
C       5.52      20.92       3.93
C       4.30      20.88       3.00
C       3.55      22.05       2.67
C       2.47      22.00       1.78
C       2.10      20.79       1.15
C       2.89      19.65       1.39
C       3.97      19.70       2.29
C       5.58      19.76       4.93
C       5.54      22.10       4.90
C       4.40      22.38       5.71
C       4.45      23.28       6.79
C       5.66      23.92       7.13
C       6.79      23.70       6.32
C       6.73      22.79       5.24
C       6.78      19.50       5.65
C       6.82      18.61       6.74
C       5.65      17.95       7.18
C       4.46      18.18       6.47
C       4.42      19.07       5.38
C      16.66      47.22      28.81
C      17.59      47.43      26.58
C      16.73      48.54      26.33
C      15.81      48.31      28.53
C      18.50      46.81      25.59
C      16.65      44.72      19.87
C      17.59      42.70      20.80
C      16.73      41.92      19.97
C      15.80      43.94      19.06
C      18.50      42.15      21.83
C      16.66      38.23      26.50
C      17.59      40.05      27.79
C      16.74      39.72      28.87
C      15.81      37.93      27.58
C      18.50      41.22      27.75
C       5.68      17.19       8.39
C       6.61      16.98      10.61
C       5.76      15.87      10.87
C       4.83      16.10       8.67
C       7.52      17.60      11.60
C       5.67      19.68      17.33
C       6.60      21.71      16.40
C       5.75      22.48      17.23
C       4.82      20.47      18.13
C       7.51      22.26      15.37
C       5.67      26.17      10.70
C       6.60      24.36       9.41
C       5.75      24.68       8.32
C       4.81      26.48       9.61
C       7.51      23.19       9.45
C      20.88      53.87      19.04
C      21.90      11.32      19.03
C       1.02      10.82      18.30
C       0.01      53.40      18.32
C      21.70      12.74      19.39
C      20.88      32.94      18.99
C      21.88      31.83      17.08
C       1.00      31.44      17.88
C       0.01      32.55      19.76
C      21.67      31.43      15.67
C      20.90      43.36      37.14
C      21.89      19.89       0.29
C       1.02      20.77       0.23
C       0.03      44.22      37.09
C      21.69      18.86       1.34
C       9.91      10.54      18.15
C      10.88      53.09      18.16
C      11.99      53.58      18.90
C      11.03      11.01      18.88
C      10.68      51.67      17.80
C       9.89      31.47      18.20
C      11.00      31.86      17.43
C      10.68      32.97      21.52
C       9.90      21.04       0.06
C      10.90      44.52      36.90
C      12.01      43.64      36.97
C      11.02      20.18       0.10
C      10.70      45.54      35.86
C      10.89      15.08       7.12
C      12.00      15.46       6.32
C      19.79      35.55       6.46
C      19.43      34.38       5.75
C      18.37      33.55       6.19
C      17.65      33.83       7.37
C      17.95      35.07       8.01
C      19.00      35.89       7.58
C      16.50      32.95       7.88
C      15.29      33.74       7.39
C      14.53      34.60       8.23
C      13.45      35.35       7.74
C      13.08      35.30       6.38
C      13.87      34.51       5.51
C      14.95      33.76       6.01
C      16.56      31.51       7.37
C      16.52      32.70       9.39
C      15.39      32.14      10.04
C      15.44      31.66      11.36
C      16.65      31.69      12.08
C      17.78      32.28      11.48
C      17.72      32.75      10.16
C      17.76      30.76       7.50
C      17.80      29.37       7.29
C      16.63      28.65       6.93
C      15.44      29.38       6.77
C      15.40      30.77       7.00
C      19.79      16.21       6.51
C      19.43      16.18       7.88
C      18.38      16.97       8.37
C      17.65      17.86       7.54
C      17.95      17.80       6.15
C      19.01      17.01       5.65
C      16.51      18.73       8.05
C      15.29      17.92       7.61
C      14.54      18.21       6.44
C      13.45      17.42       6.03
C      13.08      16.27       6.77
C      13.87      15.91       7.88
C      14.96      16.71       8.28
C      16.57      19.02       9.55
C      16.53      20.17       7.51
C      15.39      21.01       7.67
C      15.44      22.39       7.43
C      16.65      23.01       7.04
C      17.78      22.19       6.83
C      17.72      20.81       7.08
C      17.76      19.51      10.14
C      17.81      20.01      11.45
C      16.64      20.07      12.25
C      15.44      19.56      11.69
C      15.41      19.07      10.37
C      19.81      25.92      23.23
C      19.45      27.12      22.57
C      18.39      27.15      21.64
C      17.67      25.99      21.29
C      17.97      24.81      22.03
C      19.02      24.78      22.97
C      16.52      25.99      20.28
C      15.31      26.02      21.20
C      14.55      24.86      21.53
C      13.47      24.91      22.43
C      13.10      26.12      23.06
C      13.89      27.26      22.81
C      14.97      27.21      21.92
C      16.57      27.15      19.28
C      16.54      24.81      19.30
C      15.40      24.53      18.49
C      15.45      23.62      17.42
C      16.66      22.98      17.07
C      17.79      23.21      17.88
C      17.73      24.12      18.96
C      17.77      27.41      18.56
C      17.81      28.30      17.46
C      16.65      28.96      17.02
C      15.45      28.73      17.74
C      15.41      27.84      18.83
C       8.80      38.62       4.75
C       8.43      39.79       5.46
C       7.38      40.61       5.02
C       6.65      40.33       3.84
C       6.95      39.10       3.20
C       8.01      38.27       3.63
C       5.51      41.21       3.34
C       4.29      40.42       3.83
C       3.54      39.56       2.98
C       2.46      38.81       3.47
C       2.09      38.87       4.83
C       2.88      39.65       5.70
C       3.96      40.40       5.21
C       5.56      42.66       3.84
C       5.52      41.46       1.82
C       4.39      42.02       1.18
C       4.44      64.88      38.62
C       5.65      64.86      37.89
C       6.78      64.27      38.49
C       6.72      41.41       1.05
C       6.76      43.41       3.71
C       6.80      44.80       3.93
C       5.63      45.51       4.28
C       4.44      44.78       4.44
C       4.40      43.39       4.21
C       8.80      13.20       4.70
C       8.44      13.23       3.34
C       7.38      12.44       2.84
C       6.66      11.55       3.68
C       6.96      11.61       5.07
C       8.01      12.40       5.56
C       5.51      10.67       3.17
C       4.30      11.49       3.60
C       3.54      11.19       4.77
C       2.46      11.99       5.18
C       2.09      13.14       4.45
C       2.88      13.50       3.33
C       3.96      12.70       2.93
C       5.57      10.39       1.66
C       5.53       9.24       3.71
C       4.40       8.39       3.55
C       4.45       7.01       3.79
C       5.66       6.40       4.17
C       6.79       7.21       4.38
C       6.73       8.60       4.14
C       6.77       9.90       1.08
C       6.81      31.77      38.53
C       5.65      31.72      37.73
C       4.45      32.22      38.29
C       4.41      10.34       0.84
C       8.82      25.87      26.75
C       8.45      24.67      27.40
C       7.40      24.63      28.33
C       6.67      25.80      28.69
C       6.97      26.97      27.94
C       8.03      27.01      27.01
C       5.52      25.80      29.70
C       4.31      25.76      28.77
C       3.56      26.92      28.44
C       2.47      26.88      27.55
C       2.11      25.67      26.92
C       2.90      24.53      27.16
C       3.98      24.58      28.06
C       5.58      24.64      30.70
C       5.54      26.98      30.67
C       4.41      27.26      31.48
C       4.45      28.16      32.56
C       5.66      28.80      32.90
C       6.80      28.58      32.09
C       6.74      27.67      31.01
C       6.78      24.38      31.42
C       6.82      23.49      32.51
C       5.66      22.83      32.95
C       4.46      23.05      32.24
C       4.42      23.95      31.15
C      16.67      29.72      15.81
C      17.60      29.93      13.59
C      16.74      31.04      13.34
C      15.81      30.81      15.54
C      18.50      29.31      12.60
C      16.66      27.22       6.88
C      17.59      25.20       7.81
C      16.74      24.42       6.98
C      15.81      26.44       6.07
C      18.50      24.65       8.84
C      16.67      20.73      13.51
C      17.60      22.55      14.80
C      16.75      22.22      15.88
C      15.81      20.43      14.59
C      18.51      23.72      14.76
C       5.68      22.07      34.16
C       6.61      21.86      36.38
C       5.73      65.51      36.64
C       4.83      20.97      34.44
C       7.52      22.48      37.37
C       5.65      46.94       4.34
C       6.61       4.21       3.41
C       5.75       4.98       4.24
C       4.80      47.73       5.14
C       7.51       4.76       2.37
C       5.67      31.05      36.47
C       6.61      29.24      35.18
C       5.75      29.56      34.09
C       4.82      31.36      35.38
C       7.51      28.07      35.22
C      20.88      36.37       6.05
C      21.88      38.58       6.04
C       1.00      38.08       5.31
C       0.01      35.90       5.33
C      21.68      40.00       6.40
C      20.89      15.44       6.00
C      21.88      14.33       4.09
C       1.00      13.94       4.89
C       0.02      15.05       6.77
C      21.68      13.93       2.68
C      20.91      25.86      24.15
C      21.90      24.77      26.06
C       1.02      25.65      26.00
C       0.03      26.72      24.10
C      21.70      23.74      27.11
C       9.89      37.79       5.16
C      10.88      35.59       5.17
C      12.00      36.08       5.90
C      11.01      38.27       5.89
C      10.68      34.17       4.81
C       9.89      13.97       5.21
C      11.01      14.36       4.44
C      10.69      15.47       8.53
C       9.91      25.92      25.83
C      10.91      27.02      23.91
C      12.02      26.14      23.98
C      11.03      25.06      25.88
C      10.71      28.04      22.86
H      14.60      48.71      24.74
H      14.51      49.52      22.51
H      18.67      49.81      24.97
H      18.59      50.56      22.73
H      18.61      48.71      20.82
H      18.68      46.38      20.43
H      14.55      46.40      19.58
H      14.48      48.72      19.97
H      15.50      50.72      18.33
H      13.68      52.01      17.50
H      12.92      53.44      21.39
H      14.77      52.21      22.21
H      17.41      52.86      21.83
H      18.13      50.24      18.60
H      19.90      51.62      17.88
H      19.20      54.24      21.11
H      14.60      40.46      20.61
H      14.51      38.13      21.03
H      18.67      40.11      19.54
H      18.60      37.79      20.02
H      18.62      37.06      22.57
H      18.69      37.89      24.78
H      14.55      37.14      25.19
H      14.48      36.32      22.98
H      15.50      33.90      22.07
H      13.69      32.53      21.37
H      12.93      35.19      18.19
H      14.78      36.51      18.84
H      17.42      35.87      18.47
H      18.14      34.37      22.35
H      19.91      33.06      21.52
H      19.20      34.55      17.64
H      14.61      41.01      29.82
H      14.52      42.53      31.64
H      18.68      40.26      30.66
H      18.61      41.83      32.42
H      18.63      44.41      31.78
H      18.69      45.91      29.96
H      14.56      46.63      30.41
H      14.49      45.13      32.22
H      15.52      45.56      34.77
H      13.71      45.63      36.31
H      12.94      41.54      35.60
H      14.79      41.45      34.12
H      17.43      41.45      34.87
H      18.16      45.56      34.22
H      19.92      45.50      35.77
H      19.22      41.39      36.42
H       3.63      15.70      12.45
H       3.53      14.88      14.68
H       7.69      14.60      12.23
H       7.62      13.85      14.46
H       7.64      15.70      16.38
H       7.71      18.03      16.77
H       3.57      18.00      17.62
H       3.51      15.68      17.22
H       4.53      13.68      18.87
H       2.72      12.39      19.70
H       1.95      10.96      15.81
H       3.80      12.19      14.99
H       6.45      11.55      15.36
H       7.17      14.16      18.59
H       8.93      12.79      19.32
H       8.23      10.17      16.08
H       3.61      23.94      16.58
H       3.52      26.28      16.17
H       7.68      24.30      17.65
H       7.60      26.61      17.18
H       7.62      27.34      14.62
H       7.69      26.52      12.41
H       3.56      27.26      12.00
H       3.49      28.08      14.21
H       4.51      30.51      15.12
H       2.69      31.87      15.82
H       1.93      29.21      19.01
H       3.78      27.89      18.35
H       6.42      28.54      18.72
H       7.14      30.03      14.84
H       8.91      31.35      15.67
H       8.21      29.86      19.56
H       3.62      23.40       7.37
H       3.53      21.87       5.56
H       7.68      24.15       6.54
H       7.61      22.58       4.77
H       7.63      20.00       5.42
H       7.71      18.50       7.23
H       3.57      17.77       6.79
H       3.50      19.28       4.98
H       4.52      18.85       2.42
H       2.71      18.77       0.89
H       1.95      22.86       1.59
H       3.80      22.95       3.07
H       6.44      22.95       2.33
H       7.16      18.85       2.98
H       8.93      18.91       1.43
H       8.22      23.02       0.77
H      15.14      48.66      29.22
H      18.95      45.90      25.98
H      19.30      47.50      25.34
H      17.94      46.56      24.69
H      15.13      44.36      18.41
H      18.95      42.95      22.42
H      19.30      41.59      21.36
H      17.95      41.49      22.50
H      15.14      37.16      27.55
H      18.95      41.34      26.76
H      19.31      41.10      28.47
H      17.95      42.13      27.98
H       4.16      15.74       7.98
H       7.96      18.52      11.21
H       8.32      16.91      11.85
H       6.96      17.85      12.51
H       4.16      20.05      18.78
H       7.96      21.47      14.77
H       8.31      22.82      15.83
H       6.95      22.92      14.69
H       4.15      27.25       9.65
H       7.96      23.07      10.43
H       8.31      23.31       8.73
H       6.95      22.28       9.21
H       0.11      52.42      18.06
H      20.71      12.90      19.83
H      21.78      13.37      18.50
H       0.45      13.05      20.13
H       0.11      32.82      20.74
H      20.69      31.73      15.31
H      21.76      30.35      15.57
H       0.43      31.91      15.04
H       0.13      44.94      36.37
H      20.70      18.41       1.26
H      21.78      19.32       2.33
H       0.45      18.07       1.24
H      11.13      11.99      19.14
H       9.69      51.51      17.36
H      10.76      51.04      18.68
H      11.42      51.36      17.06
H      11.11      31.59      16.45
H       9.70      32.67      21.88
H      10.77      34.05      21.62
H      11.43      32.49      22.16
H      11.12      19.47       0.82
H       9.71      46.00      35.93
H      10.79      45.09      34.87
H      11.44      46.33      35.95
H      14.61      31.21      11.75
H      14.51      32.02       9.52
H      18.67      32.31      11.98
H      18.60      33.06       9.74
H      18.62      31.21       7.83
H      18.69      28.88       7.44
H      14.55      28.90       6.59
H      14.48      31.22       6.98
H      15.50      33.22       5.33
H      13.69      34.51       4.51
H      12.93      35.94       8.40
H      14.78      34.71       9.22
H      17.42      35.36       8.84
H      18.14      32.74       5.61
H      19.91      34.12       4.89
H      19.20      36.74       8.12
H      14.61      22.96       7.62
H      14.52      20.63       8.03
H      18.67      22.61       6.55
H      18.60      20.29       7.02
H      18.62      19.56       9.58
H      18.70      20.39      11.79
H      14.56      19.64      12.20
H      14.49      18.82       9.99
H      15.51      16.40       9.08
H      13.69      15.03       8.38
H      12.93      17.69       5.20
H      14.78      19.01       5.85
H      17.42      18.37       5.48
H      18.15      16.87       9.36
H      19.91      15.56       8.53
H      19.21      17.05       4.65
H      14.62      23.51      16.83
H      14.53      25.03      18.65
H      18.68      22.76      17.66
H      18.61      24.33      19.43
H      18.63      26.91      18.79
H      18.70      28.41      16.97
H      14.56      29.13      17.42
H      14.50      27.63      19.23
H      15.53      28.06      21.78
H      13.71      28.13      23.32
H      12.95      24.04      22.61
H      14.80      23.95      21.13
H      17.44      23.95      21.87
H      18.16      28.06      21.22
H      19.93      28.00      22.78
H      19.22      23.89      23.43
H       3.61      65.33      38.23
H       3.51      42.14       1.69
H       7.67      64.24      38.00
H       7.60      41.11       1.47
H       7.62      42.96       3.39
H       7.69      45.29       3.78
H       3.55      45.26       4.63
H       3.49      42.94       4.23
H       4.51      40.94       5.88
H       2.70      39.65       6.71
H       1.93      38.22       2.81
H       3.78      39.45       2.00
H       6.42      38.81       2.37
H       7.15      41.42       5.60
H       8.91      40.05       6.33
H       8.21      37.43       3.09
H       3.62       6.44       3.59
H       3.52       8.78       3.18
H       7.68       6.80       4.66
H       7.61       9.11       4.19
H       7.63       9.84       1.63
H       7.70      31.40      38.18
H       3.57      32.14      37.78
H       3.49      10.58       1.22
H       4.51      13.01       2.13
H       2.70      14.37       2.83
H       1.94      11.71       6.02
H       3.79      10.39       5.36
H       6.43      11.04       5.73
H       7.15      12.53       1.85
H       8.92      13.85       2.68
H       8.21      12.36       6.57
H       3.62      28.27      33.15
H       3.53      26.75      31.33
H       7.69      29.03      32.31
H       7.62      27.46      30.54
H       7.64      24.88      31.19
H       7.71      23.38      33.01
H       3.58      22.65      32.56
H       3.51      24.15      30.75
H       4.53      23.73      28.20
H       2.72      23.65      26.66
H       1.95      27.74      27.36
H       3.80      27.83      28.84
H       6.44      27.83      28.10
H       7.17      23.73      28.75
H       8.93      23.79      27.20
H       8.23      27.90      26.54
H      15.15      31.16      16.23
H      18.96      28.40      12.99
H      19.31      30.00      12.35
H      17.95      29.06      11.70
H      15.14      26.86       5.42
H      18.95      25.45       9.43
H      19.31      24.09       8.37
H      17.95      23.99       9.51
H      15.15      19.66      14.56
H      18.96      23.84      13.77
H      19.31      23.60      15.48
H      17.95      24.63      14.99
H       4.17      20.62      33.75
H       7.97      23.39      36.98
H       8.33      21.79      37.62
H       6.97      22.73      38.28
H       4.13      47.30       5.79
H       7.97       3.97       1.78
H       8.32       5.32       2.84
H       6.96       5.42       1.70
H       4.15      32.13      35.42
H       7.96      27.95      36.21
H       8.32      28.19      34.50
H       6.96      27.16      34.98
H       0.12      34.92       5.07
H      20.69      40.16       6.84
H      21.76      40.63       5.51
H       0.43      40.31       7.14
H       0.12      15.32       7.75
H      20.69      14.23       2.32
H      21.77      12.85       2.58
H       0.43      14.41       2.05
H       0.14      27.44      23.38
H      20.71      23.28      27.03
H      21.78      24.20      28.10
H       0.45      22.95      27.01
H      11.11      39.25       6.15
H       9.70      34.01       4.37
H      10.77      33.54       5.69
H      11.43      33.86       4.07
H      11.11      14.09       3.46
H       9.70      15.17       8.89
H      10.77      16.55       8.63
H      11.43      14.99       9.17
H      11.13      24.34      26.60
H       9.72      28.50      22.94
H      10.79      27.59      21.88
H      11.45      28.83      22.96
N      17.50      46.84      27.80
N      15.87      48.91      27.31
N      17.49      44.05      20.70
N      15.87      42.58      19.15
N      17.50      39.29      26.67
N      15.88      38.68      28.71
N       6.51      17.57       9.39
N       4.89      15.50       9.88
N       6.51      20.36      16.49
N       4.89      21.82      18.04
N       6.50      25.12      10.53
N       4.88      25.72       8.48
N      20.89      55.20      19.35
N       0.99      54.26      17.98
N      20.89      32.55      17.68
N       1.00      31.82      19.18
N      20.91      42.43      38.13
N       1.02      44.09      38.01
N       9.89      53.97      17.84
N      11.99      54.90      19.22
N       9.90      31.86      19.51
N      11.99      32.58      18.01
N       9.91      44.36      37.83
N      12.01      42.70      37.95
N      17.50      29.34      14.81
N      15.88      31.41      14.32
N      17.50      26.55       7.71
N      15.87      25.08       6.16
N      17.50      21.79      13.68
N      15.88      21.18      15.72
N       6.52      22.45      35.16
N       4.87      65.13      35.66
N       6.52       2.86       3.50
N       4.89       4.32       5.05
N       6.51      29.99      36.30
N       4.89      30.60      34.26
N      20.89      37.70       6.36
N       1.00      36.76       4.99
N      20.90      15.05       4.69
N       1.00      14.32       6.19
N      20.91      24.93      25.14
N       1.02      26.59      25.02
N       9.90      36.47       4.85
N      11.99      37.40       6.23
N       9.90      14.36       6.52
N      12.00      15.08       5.02
N       9.92      26.86      24.84
N      12.02      25.20      24.96
