156

C       9.71       0.09       1.18
C       9.66      15.51      28.38
C       9.69     -15.39      28.08
C       0.48       0.63      11.08
C       9.86       1.51      13.19
C       0.06      -0.84      12.89
C       0.48       6.83      23.58
C       9.91       4.55      23.26
C       0.10       6.01      21.39
C       0.50      -7.10      22.69
C       9.87      -5.71      20.88
C       0.08      -4.80      23.07
C       0.78      -0.10       7.51
C       1.72      -0.20       6.46
C       1.26      -0.33       5.13
C       9.90      -0.39       4.84
C       8.95      -0.31       5.89
C       9.42      -0.15       7.21
C       9.50      -0.59       3.49
C       1.17      -0.07       8.87
C       0.70      10.26      24.84
C       1.64      11.21      25.31
C       1.16      12.38      25.94
C       9.79      12.64      26.07
C       8.85      11.69      25.58
C       9.34      10.51      24.99
C       9.38      13.87      26.63
C       1.11       9.11      24.13
C       0.80      -9.82      25.11
C       1.74     -10.69      25.72
C       1.26     -11.77      26.49
C       9.90     -11.98      26.69
C       8.96     -11.11      26.10
C       9.44     -10.04      25.30
C       9.50     -13.05      27.53
C       1.21      -8.66      24.40
C       9.41       5.50      17.79
C       8.32       5.38      16.89
C       8.56       4.96      15.56
C       9.86       4.63      15.11
C       0.94       4.82      15.98
C       0.71       5.27      17.30
C       9.98       3.82      13.95
C       9.21       5.58      19.19
C       9.41      -1.41      24.42
C       8.32      -0.57      24.76
C       8.57       0.79      25.06
C       9.87       1.33      25.02
C       0.95       0.48      24.75
C       0.70      -0.89      24.47
C      10.00       2.74      24.89
C       9.19      -2.67      23.79
C       9.39      -3.70      15.15
C       8.30      -4.43      15.70
C       8.54      -5.37      16.72
C       9.84      -5.60      17.22
C       0.92      -4.94      16.62
C       0.68      -4.01      15.58
C       9.97      -6.21      18.50
C       9.18      -2.52      14.38
H       0.27       1.13       2.79
H       0.23     -14.51      26.37
H       0.20      13.59      28.44
H       9.09       2.26      14.86
H       0.63      -2.76      13.02
H       0.18       1.61       9.36
H       9.17       2.72      23.06
H       0.67       6.87      19.67
H       0.19       7.78      25.32
H       9.09      -4.64      19.41
H       0.65      -3.73      24.67
H       0.22      -9.08      22.70
H       1.95      -0.41       4.37
H       8.73      -0.11       7.97
H       1.83      13.08      26.27
H       8.65       9.84      24.62
H       1.95     -12.40      26.93
H       8.75      -9.40      24.89
H       7.76       4.79      14.94
H       1.50       5.29      17.95
H       7.77       1.42      25.22
H       1.49      -1.46      24.17
H       7.74      -5.82      17.18
H       1.48      -3.46      15.24
N       9.71      32.10       0.64
N       9.74       1.16       0.35
N       9.87       0.29       2.52
N       9.69      16.60      27.58
N       9.84     -14.33      27.24
N       9.78      14.25      27.87
N       0.17       1.69      11.88
N       9.80       0.24      13.66
N       0.41      -0.63      11.60
N       9.56       2.53      14.04
N       0.01      -2.11      13.40
N       0.63       0.83       9.74
N       0.19       5.60      24.08
N       9.86       4.79      21.93
N       0.42       7.02      22.24
N       9.62       3.30      23.71
N       0.05       6.21      20.04
N       0.61       7.88      24.44
N       0.19      -6.93      21.38
N       9.81      -4.67      21.75
N       0.44      -6.02      23.52
N       9.56      -5.48      19.58
N       0.03      -3.73      23.92
N       0.67      -8.36      23.19
N       7.56      -0.36       5.59
N       3.11      -0.16       6.75
N       7.47      11.94      25.72
N       3.03      10.97      25.16
N       7.57     -11.32      26.29
N       3.13     -10.47      25.54
N       2.25       4.45      15.56
N       7.00       5.65      17.33
N       2.26       1.02      24.65
N       6.99      -1.07      24.77
N       2.23      -5.12      17.15
N       6.98      -4.17      15.26
O       8.75      -1.68       3.22
O       6.98       0.70       5.94
O       3.67       0.82       6.20
O       3.69      -1.22       6.39
O       7.01      -1.33       6.17
O       1.91      -1.11       9.31
O       6.91      11.06      26.42
O       3.60      10.92      26.27
O       3.57      11.87      24.47
O       6.89      11.98      24.60
O       1.81       9.31      22.99
O       8.62      14.68      25.85
O       6.99     -11.54      25.20
O       3.68     -11.44      24.97
O       3.71     -10.26      26.63
O       7.03     -10.33      26.84
O       1.95      -7.76      25.09
O       8.77     -12.73      28.63
O       2.71       3.51      16.25
O       6.48       6.59      16.68
O       6.26       4.64      17.23
O       3.04       5.43      15.62
O       8.23       4.79      19.71
O       0.85       4.20      13.00
O       2.73       0.89      23.49
O       6.47      -0.98      25.90
O       6.26      -0.48      23.94
O       3.04       0.47      25.47
O       8.22      -2.72      22.85
O       0.84       3.37      25.72
O       2.69      -4.06      17.62
O       6.45      -5.20      14.76
O       6.24      -3.76      16.19
O       3.02      -5.55      16.27
O       8.20      -1.68      14.81
O       0.84      -7.22      18.63
