11

Zn       2.49       4.44      13.67
C       3.98       1.85      13.67
C       3.96       7.04      13.67
C       3.97       4.50      16.26
C       3.98       4.43      11.09
N       0.52       4.44      13.67
N      -0.67       4.44      13.67
O       2.85       6.41      13.67
O       2.87       2.47      13.67
O       2.87       4.46      11.72
O       2.86       4.42      15.62
