11

Zn       5.45       4.44      13.67
C       3.98       1.85      13.67
C       3.96       7.04      13.67
C       3.97       4.50      16.26
C       3.98       4.43      11.09
N       8.61       4.44      13.67
N       7.42       4.44      13.67
O       5.09       2.47      13.67
O       5.06       6.41      13.67
O       5.07       4.42      15.62
O       5.08       4.46      11.72
