84

C       3.07       0.84      22.74
C       4.05      -0.00      21.87
C       5.38      -0.10      22.66
C       5.07       0.61      23.98
C       6.24       1.09      24.84
C       7.19      -0.08      25.16
C       8.29       0.31      26.16
C       7.73       0.97      27.43
C       7.02      -0.07      28.33
C       6.46       0.54      29.61
C       5.50       1.68      29.27
C       6.24       2.72      28.43
C       6.81       2.18      27.10
C       3.49       2.28      24.91
C       4.62       2.79      25.84
C       5.67       1.71      26.14
C       4.04       1.71      23.59
C       1.96       1.49      21.89
C       1.11       0.35      21.27
C       0.01       0.81      20.30
C       0.57       1.56      19.10
C       1.07       2.46      22.68
C       7.65       3.31      26.47
C       4.66       2.83      22.73
C       5.06      -0.25      31.45
C       5.20      -1.38      32.47
C       4.76      -2.69      31.79
C       3.28      -2.51      31.44
C       3.14      -1.32      30.47
C       1.71      -0.96      30.11
O      -0.06       2.62      18.74
O       1.59       1.09      18.52
O       5.86      -0.56      30.34
O       3.68      -0.11      31.08
O       6.55      -1.42      32.95
O       4.99      -3.81      32.63
O       2.75      -3.72      30.88
O       0.93      -0.63      31.28
H       2.57       0.16      23.46
H       3.64      -1.00      21.65
H       4.20       0.49      20.89
H       5.70      -1.14      22.81
H       6.20       0.40      22.13
H       4.50      -0.10      24.60
H       6.79       1.85      24.29
H       6.59      -0.91      25.56
H       7.65      -0.45      24.24
H       9.00       1.00      25.68
H       8.87      -0.58      26.44
H       8.58       1.37      28.01
H       6.19      -0.55      27.80
H       7.72      -0.87      28.59
H       7.28       0.93      30.23
H       5.11       2.15      30.19
H       4.63       1.28      28.74
H       7.09       3.11      29.02
H       5.60       3.59      28.24
H       2.93       1.49      25.43
H       2.78       3.10      24.73
H       5.09       3.67      25.38
H       4.16       3.14      26.77
H       5.14       0.90      26.65
H       2.44       2.04      21.07
H       1.77      -0.34      20.73
H       0.64      -0.22      22.09
H      -0.52      -0.08      19.92
H      -0.74       1.43      20.79
H       0.25       2.85      22.06
H       1.63       3.32      23.05
H       0.62       1.96      23.55
H       8.10       3.03      25.51
H       8.46       3.60      27.15
H       7.03       4.20      26.30
H       5.03       2.45      21.77
H       5.50       3.32      23.24
H       3.91       3.60      22.51
H       5.34       0.72      31.89
H       4.52      -1.16      33.31
H       5.34      -2.82      30.87
H       2.73      -2.27      32.37
H       3.69      -1.55      29.54
H       1.75      -3.63      30.83
H       1.72      -0.11      29.41
H       1.22      -1.81      29.63
