84

C       0.62       8.89       1.43
C      -0.87       8.71       1.78
C      -1.00       7.52       2.75
C      -2.43       7.17       3.11
H      -1.57       6.01       9.76
H      -0.50       7.16      11.58
H       0.06       5.68      12.32
H       1.55       7.31      10.40
H       2.06       5.77      11.09
H       0.36       6.28       8.62
H       2.65       4.32       8.93
H       2.46       7.09       7.67
H       3.51       6.62       8.99
H       4.85       5.17       7.54
H       4.73       6.76       6.79
H       4.43       4.81       5.20
H       2.05       6.74       5.43
H       3.58       7.06       4.64
H       3.14       5.26       2.99
H       0.96       4.05       3.03
H       0.48       4.92       4.48
H       2.94       3.08       4.18
H       1.44       2.61       4.96
O      -4.21       3.53      14.42
O      -2.61       5.11      14.71
O       1.72       6.77       2.89
O      -0.46       6.32       2.14
H       0.99       5.28       6.57
H      -1.71       4.14      12.15
O      -1.39       9.93       2.34
H      -2.39       6.51      12.48
H      -3.49       6.40      11.12
H      -4.68       6.27      13.27
H      -4.90       4.76      12.40
H      -3.89       3.33      11.16
H      -2.51       2.85      10.18
H      -3.53       4.21       9.67
H       3.95       3.15       7.69
H       4.31       2.58       6.06
H       2.88       1.98       6.90
H       0.88       3.72      11.45
H       1.36       2.85       9.98
H      -0.23       2.57      10.70
H       1.20       5.48       1.33
H       1.19       9.03       2.36
H      -1.41       8.48       0.85
H      -0.45       7.75       3.68
H       0.38       7.37      -0.08
H      -2.39       9.83       2.39
H      -2.43       6.32       3.81
H      -2.92       8.02       3.59
H      -1.22       4.68       7.79
H      -1.36       3.07       8.49
H       0.95       2.51       7.83
H       0.02       3.03       6.44
O       2.41       7.62       0.27
O       0.85      10.01       0.59
O      -3.21       6.84       1.95
C      -1.07       5.33      10.48
C      -0.09       6.17      11.36
C       1.24       6.28      10.56
C       0.93       5.56       9.24
C       2.09       5.09       8.38
C       3.05       6.25       8.06
C       4.15       5.87       7.06
C       3.58       5.22       5.78
C       2.88       6.26       4.89
C       2.32       5.66       3.61
C       1.35       4.52       3.94
C       2.09       3.47       4.78
C       2.66       4.00       6.11
C      -0.65       3.89       8.31
C       0.47       3.39       7.38
C       1.53       4.47       7.08
C      -0.10       4.46       9.62
C      -2.19       4.69      11.33
C      -3.04       5.83      11.94
C      -4.15       5.38      12.90
C      -3.61       4.62      14.10
C      -3.07       3.71      10.54
C       3.50       2.87       6.74
C       0.52       3.34      10.48
C       0.92       6.45       1.78
C       1.06       7.58       0.75
