136

Cd       4.76       4.09      14.55
Cd       1.85       6.01      13.34
Cd       1.74       2.07      15.33
Cd      -0.40       4.97       4.54
Cd       2.50       3.05       5.75
Cd       2.62       6.99       3.76
H       3.67       3.89      18.59
H       4.95       5.96       1.90
H      -2.39       2.09      15.02
H      -2.48       5.94      13.07
H       6.60       0.40      13.13
H      -1.84       9.15      15.70
H      -0.67       7.04      14.99
H       1.91       9.13      12.53
H       7.18       2.14      15.03
H      -4.97       5.90      13.31
H      10.25      -1.20      12.77
H      -5.39       7.80      15.92
H      -0.51       0.90      13.25
H       1.59      -0.95      16.28
H       1.05       1.55      10.73
H       4.41       4.26      10.64
H       4.37       4.08       8.13
H       1.06       1.61       8.22
H       0.37       6.49      17.60
H       1.70       8.34       0.95
H       0.69       5.17       0.51
H      -0.60       3.11      17.19
H       6.74       6.98       4.08
H       6.83       3.13       6.02
H      -2.24       8.67       5.97
H       6.20      -0.09       3.39
H       5.02       2.02       4.10
H       2.45      -0.07       6.57
H      -2.83       6.93       4.06
H       9.33       3.16       5.79
H      -5.89      10.26       6.32
H       9.74       1.26       3.18
H       4.87       8.17       5.85
H       2.76      10.02       2.81
H       3.30       7.51       8.36
H      -0.05       4.81       8.45
H      -0.01       4.98      10.96
H       3.30       7.46      10.88
H       3.99       2.58       1.49
H       2.65       0.72      18.15
C      -2.23       4.02      14.06
C      -0.72       4.05      14.08
C       2.82       4.50      18.88
C       2.07       5.17      17.89
C       2.39       5.05      16.45
C       4.72       7.32      14.10
C       2.70       3.03      12.37
C       4.40       6.46       1.11
C      -2.93       2.94      14.61
C      -6.60       8.61      14.32
C       4.53       0.77      14.87
C      -2.98       5.09      13.54
C       5.19      -0.52      14.48
C       6.25      -0.53      13.56
C      -1.01       9.18      15.00
C      -0.37       8.01      14.61
C       1.07       9.19      13.23
C       7.76       2.97      14.65
C      -4.36       5.07      13.65
C      -1.08      -1.18      13.56
C      -5.61       8.68      15.32
C      -0.36      -0.02      13.82
C       0.83      -1.05      15.52
C       2.73       2.91      10.89
C       1.79       2.13      10.19
C       3.68       3.63      10.13
C       3.65       3.55       8.75
C       1.80       2.14       8.80
C       0.96       5.94      18.33
C       2.58       7.81       0.58
C       6.58       5.04       5.03
C       5.08       5.01       5.01
C       1.54       4.57       0.22
C       2.29       3.89       1.20
C       1.97       4.02       2.64
C      -0.36       1.74       4.99
C       1.66       6.03       6.73
C      -0.04       2.60      17.98
C       7.29       6.12       4.48
C      10.96       0.46       4.77
C      -0.18       8.29       4.22
C       7.34       3.97       5.56
C      -0.83       9.59       4.61
C      -1.90       9.60       5.53
C       5.37      -0.12       4.09
C       4.72       1.05       4.48
C       3.28      -0.12       5.87
C      -3.41       6.10       4.45
C       8.72       4.00       5.45
C       5.44      10.24       5.54
C       9.97       0.38       3.78
C       4.71       9.08       5.27
C       3.53      10.12       3.58
C       1.62       6.15       8.21
C       2.56       6.93       8.90
C       0.68       5.43       8.96
C       0.71       5.51      10.34
C       2.55       6.92      10.29
C       3.39       3.13       0.77
C       1.77       1.25      18.51
N       0.66       8.01      13.74
N       7.04       4.03      14.20
N       0.58       0.06      14.79
N       2.72       2.84       8.08
N       3.30       7.15       1.52
N       3.69       1.06       5.36
N      -2.68       5.04       4.90
N       3.78       9.01       4.30
N       1.64       6.23      11.01
N       1.05       1.91      17.57
O       1.93       5.92      15.65
O       3.27       4.10      12.86
O      -0.16       4.85      13.27
O       3.11       4.01      16.11
O       3.57       0.71      15.71
O      -0.17       3.28      14.93
O       3.82       7.33      13.20
O       2.10       2.14      13.04
O       5.07       6.34      14.84
O       5.01       1.82      14.33
O       2.42       3.15       3.44
O       1.09       4.97       6.23
O       4.51       4.21       5.83
O       1.25       5.05       2.98
O       0.79       8.35       3.39
O       4.53       5.78       4.17
O       0.54       1.74       5.89
O       2.25       6.93       6.06
O      -0.71       2.72       4.25
O      -0.65       7.25       4.77
