74

Co       0.31       2.67       0.87
Co       9.74      -0.00       1.42
Co       3.50       5.03       9.46
Co       4.68       7.75       8.66
Co      -4.75      10.43       8.12
Co       1.49       5.40       0.08
H       1.55       0.65       1.32
H      -0.08       4.79       2.04
H       3.93       0.93       1.98
H       5.73      10.51       1.69
H       5.55       4.70       0.63
H      -2.06       5.45       6.44
H      -0.90       4.44       4.47
H      -2.37       0.50       5.46
H       3.45       9.78       8.21
H       5.08       5.64       7.50
H       1.06       9.50       7.56
H      -0.73      -0.09       7.85
H      -0.56       5.73       8.90
H       7.06       4.98       3.10
H       5.90       5.99       5.06
H       7.37       9.93       4.08
C       6.92       3.01       0.70
C       7.08       1.63       0.99
C       4.79       1.49       1.61
C       6.01       0.85       1.45
C       4.62       2.87       1.30
C       5.68       3.65       0.85
C       3.24       3.46       1.36
C      -2.96       2.13       6.76
C      -2.88       3.52       7.04
C      -2.13       4.38       6.23
C      -1.49       3.82       5.14
C      -1.58       2.42       4.85
C      -2.30       1.56       5.67
C      -0.94       1.91       3.60
C      -1.93       7.42       8.83
C      -2.09       8.80       8.55
C       0.20       8.94       7.93
C      -1.02       9.58       8.08
C       0.38       7.56       8.24
C      -0.69       6.78       8.68
C       1.76       6.97       8.18
C       7.96       8.30       2.77
C       7.88       6.91       2.50
C       7.13       6.05       3.31
C       6.48       6.61       4.39
C       6.57       8.01       4.68
C       7.30       8.87       3.87
C       5.93       8.52       5.94
N       8.40       1.34       0.76
N       9.00       2.47       0.38
N       8.15       3.49       0.32
N      -3.76       1.57       7.74
N      -4.14       2.56       8.54
N      -3.63       3.74       8.16
N      -3.40       9.09       8.78
N      -4.01       7.96       9.16
N      -3.16       6.94       9.21
N       8.75       8.86       1.80
N       9.13       7.87       0.99
N       8.63       6.69       1.38
O       0.75       0.67       0.75
O      -0.03       4.69       1.07
O       3.11       4.70       1.03
O       2.28       2.69       1.67
O      -1.07       0.66       3.32
O      -0.33       2.75       2.87
O       4.24       9.76       8.78
O       5.03       5.74       8.47
O       1.89       5.73       8.51
O       2.71       7.74       7.86
O       6.07       9.77       6.22
O       5.33       7.67       6.66
