26

H       1.13      -3.24       9.75
H       5.84      -4.29      10.77
H       4.50      -5.96       9.72
H       3.44      -7.23       8.38
H      -1.27      -6.18       7.36
H       0.07      -4.51       8.41
C       5.23      -1.56      11.46
C       4.32      -2.56      10.83
C       2.93      -2.32      10.59
C       2.15      -3.50       9.94
C       2.68      -4.76       9.53
C       4.02      -5.01       9.90
C       4.81      -4.03      10.52
C      -0.67      -8.90       6.67
C       0.25      -7.91       7.30
C       1.63      -8.14       7.54
C       2.41      -6.96       8.19
C       1.89      -5.71       8.60
C       0.55      -5.46       8.23
C      -0.24      -6.44       7.61
O       6.48      -1.88      11.63
O       4.81      -0.43      11.84
O       2.28      -1.10      10.86
O      -1.91      -8.58       6.50
O      -0.25     -10.03       6.29
O       2.29      -9.37       7.27
