21

H       5.55       6.54       9.43
H       1.64       2.75       9.34
H       3.46       2.26       9.41
H       1.55       2.79      11.72
H       3.35       2.25      11.81
H       5.93       6.31      12.91
C       3.82       5.01      13.41
C       4.84       5.92       9.96
C       3.99       5.05       9.26
C       3.01       4.33       9.91
C       2.64       2.89       9.82
C       2.58       2.90      11.33
C       4.05       5.02       7.86
C       2.97       4.33      11.28
C       3.93       5.03      12.00
C       4.84       5.90      11.34
O       3.78       3.85      14.00
O       3.74       6.16      14.00
O       4.08       3.86       7.26
O       4.04       6.17       7.26
O       5.79       6.66      12.00
