28

H       1.08       3.00      13.14
H       3.26       1.03       9.18
H      -0.38       4.05       9.87
H      -0.25       4.44      11.60
H      -1.75       2.10      10.30
H      -2.38       3.38      11.39
H      -1.33       2.05      12.04
C       0.61       1.62       8.83
C       1.92       0.43      13.42
O       0.86      -0.28      13.08
H       4.69      -0.28      10.55
H       4.22      -0.64      12.22
C       1.52       2.10       9.88
C       1.00       2.79      11.00
C       1.53       2.54      12.27
C       2.38       1.44      12.45
C       3.15       1.03      11.34
O      -0.01       0.48       9.04
C       2.74       1.41      10.05
C      -0.28       3.60      10.88
C      -1.50       2.73      11.17
O       2.70       0.04      14.41
C       4.40       0.19      11.51
O       0.39       2.35       7.75
C       5.56       1.06      12.00
H       5.77       1.86      11.27
H       6.47       0.43      12.11
H       5.32       1.51      12.98
