28

O       7.97       6.88       5.17
O       7.95       5.79       3.35
C       8.62       6.05       4.43
C      11.90       2.01       6.98
O      12.68       1.26       6.28
O      11.56       1.41       8.08
H      11.34       2.25       4.36
H       9.19       5.82       7.05
H      10.06       5.24       2.40
H       9.85       3.47       2.28
H      12.52       4.88       2.91
H      11.97       4.46       1.25
H      12.28       3.15       2.43
H      10.59       5.23       8.93
C       9.56       5.08       5.05
C      10.29       4.13       4.29
C      10.92       3.06       4.94
C      11.05       3.05       6.35
C      10.46       4.09       7.10
C       9.69       5.07       6.45
C      10.44       4.27       2.78
C      10.61       4.17       8.61
C      11.89       4.18       2.32
H      11.59       3.78       8.94
C       9.46       3.44       9.32
H       9.65       3.44      10.41
H       9.38       2.39       8.97
H       8.50       3.96       9.12
