28

C       6.09       9.88       5.07
O       7.18      10.46       5.48
O       6.20       8.59       5.11
C       2.68      13.99       6.53
O       3.39      15.02       6.19
O       1.41      14.28       6.46
H       2.98      13.11       4.02
H       4.75       9.94       7.40
H       5.60      10.92       2.72
H       4.38      12.16       2.33
C       4.80      10.54       5.33
C       4.24      11.39       4.36
C       3.38      12.43       4.76
C       3.14      12.66       6.12
C       3.55      11.70       7.07
C       4.36      10.63       6.66
C       4.54      11.20       2.88
C       3.19      11.85       8.54
C       3.63      10.14       2.28
H       3.04      10.85       8.99
H       2.23      12.39       8.66
C       4.29      12.58       9.30
H       3.74       9.18       2.84
H       3.91       9.96       1.22
H       2.57      10.47       2.32
H       3.97      12.73      10.36
H       4.48      13.57       8.85
H       5.23      11.99       9.29
