30

Nd      10.44       1.27       2.82
Nd      10.81       0.25       8.95
P       7.97       4.14       3.27
P      12.06       2.14       5.94
P       8.96       1.21      -0.41
P      13.28      -2.62       8.50
P       9.19      -0.62       5.83
P      11.82      -1.21       0.41
H      12.99      -0.15       3.69
H       7.88      -0.28       2.49
H       8.26       1.67       8.09
H      12.91       0.28      -2.49
C      12.97       0.68       5.28
C       8.05      -0.08       0.54
C       8.29       0.84       6.49
C      12.74       0.08      -0.54
O       8.81       2.93       3.05
O      11.66       1.81       7.35
O      10.97       2.45       4.95
O      12.69       0.62       3.88
O       9.34       0.60      -1.73
O      10.07       1.72       0.47
O       8.36       0.13       1.93
O      12.45      -1.41       8.72
O       9.59      -0.29       4.43
O      10.29      -0.92       6.82
O       8.57       0.91       7.89
O      11.44      -0.60       1.73
O      10.71      -1.72      -0.47
O      12.43      -0.13      -1.93
