28

H       3.38       9.34       7.11
H       5.27       4.96       8.43
H       2.84       9.59       5.13
H       2.30       9.85       2.81
C       4.22       9.28       9.64
C       3.36       5.52       1.68
C       4.86       5.91       8.11
C       4.20       8.17       8.67
C       2.87       7.86       2.25
C       2.70       8.90       3.15
C       3.03       8.74       4.49
C       3.57       7.52       4.98
C       3.75       6.45       4.04
C       3.92       7.35       6.36
C       4.47       6.10       6.77
C       4.65       5.07       5.85
C       4.29       5.23       4.51
C       3.78       8.37       7.34
C       4.74       6.93       9.04
C       3.38       6.62       2.67
O       4.53       5.11       1.19
O       5.44       9.72       9.95
O       2.14       5.10       1.35
O       3.05       9.71      10.11
F       5.16       6.72      10.31
F       5.20       3.88       6.23
F       2.50       8.05       0.96
F       4.50       4.17       3.69
