28

H       3.10       1.99       4.31
H       4.19      -2.54       2.63
H       3.07       2.27       6.36
H       3.08       2.54       8.74
C       3.30       1.87       1.66
C       3.94      -1.88       9.63
C       3.95      -1.56       3.04
C       3.39       0.76       2.62
C       3.56       0.50       9.17
C       3.31       1.57       8.33
C       3.30       1.40       6.95
C       3.60       0.14       6.36
C       3.89      -0.96       7.24
C       3.60      -0.05       4.94
C       3.92      -1.34       4.42
C       4.23      -2.39       5.29
C       4.21      -2.21       6.67
C       3.33       0.98       4.00
C       3.70      -0.52       2.14
C       3.85      -0.77       8.65
O       2.78      -2.30      10.11
O       2.08       2.31       1.35
O       5.16      -2.31       9.95
O       4.46       2.30       1.19
F       3.78      -0.76       0.81
F       4.58      -3.61       4.80
F       3.51       0.70      10.52
F       4.53      -3.28       7.44
