44

O      13.04       9.15       1.70
O      11.93       8.50      -0.19
O      13.04      12.77      16.42
O      11.93      13.42      18.31
H       7.31      12.12      14.60
H       7.31      11.18      10.29
H       7.31       9.80       3.53
H       7.31      10.74       7.84
H      11.63       9.80       3.53
H      11.62      10.74       7.84
H      11.63      12.12      14.60
H      11.63      11.18      10.28
H       9.47      13.23      18.15
H       9.47       8.69      -0.03
C       6.96      12.97      17.12
C       8.26      12.67      16.45
C       8.26      12.26      15.11
C       8.25      11.08       9.75
C       6.96       8.95       1.01
C       8.26       9.25       1.68
C       8.26       9.66       3.02
C       8.25      10.84       8.38
C      11.98       8.95       1.01
C      10.68       9.25       1.68
C      10.68       9.66       3.02
C      10.69      10.84       8.38
C      11.98      12.97      17.12
C      10.68      12.67      16.45
C      10.68      12.26      15.11
C      10.69      11.08       9.75
C       9.47      12.88      17.12
C       9.47      12.06      14.42
C       9.47      11.72      13.04
C       9.47      11.47      11.85
C       9.47      11.21      10.46
C       9.47       9.04       1.00
C       9.47       9.86       3.71
C       9.47      10.20       5.08
C       9.47      10.45       6.28
C       9.47      10.71       7.67
O       5.90      12.77      16.43
O       7.00      13.42      18.31
O       5.90       9.15       1.70
O       7.00       8.50      -0.19
