26

C       3.32       3.90       5.73
C       4.56       3.86       5.09
C       1.94       3.64       7.82
N      -1.79       3.21      11.35
N       5.70       3.48       5.72
H      -0.54       3.85       8.29
C      -0.52       3.57       9.34
H      -2.65       3.90       9.60
H       1.47       2.47      11.87
H      -0.75       2.54      13.02
C      -1.71       3.58      10.05
H       2.72       3.60       9.85
H       2.28       2.03       9.23
C       0.66       3.16       9.97
C       0.58       2.80      11.33
C      -0.65       2.83      11.97
C       1.96       3.08       9.24
H       4.65       4.15       4.05
H       4.43       2.85       8.77
H       6.55       2.79       7.47
H       2.43       4.23       5.19
C       4.42       3.13       7.72
H       1.17       3.12       7.22
H       1.63       4.69       7.84
C       5.61       3.11       7.02
C       3.25       3.54       7.09
