12

Cd       3.61       6.04       3.94
C       4.18       5.39       0.85
O       2.93       7.71       5.36
O       1.54       5.56       2.74
O       2.22       4.24       4.42
C       5.92       6.62       1.75
C       4.00       8.41       5.27
C       1.36       4.58       3.54
N       4.70       6.07       1.89
N       5.20       4.99       5.35
C       4.89       3.84       5.99
C       6.31       5.66       5.74
