22

Sm      12.42       3.38       8.78
Sm      12.52      -0.48      12.55
C      10.37       1.15      10.29
C      10.49       4.72       7.09
C      15.18       1.43       6.04
C      14.16       2.17       6.87
C      14.56       1.75      11.04
C      14.45      -1.82      14.24
C       9.76       1.47      15.29
C      10.78       0.73      14.46
O      10.90       1.69       9.29
O      10.97       0.54      11.18
O      11.66       4.57       6.66
O      10.22       4.49       8.32
O      14.40       3.35       7.24
O      13.08       1.57       7.20
O      14.03       1.21      12.04
O      13.96       2.36      10.15
O      13.28      -1.67      14.67
O      14.71      -1.59      13.01
O      10.54      -0.45      14.08
O      11.85       1.33      14.13
