16

C       4.09       2.01       1.47
O       2.88       1.62       1.09
V       2.09       0.16      -0.03
O       2.84       1.12      -1.60
V       5.66      -0.16       0.03
O       5.24       1.46       1.13
O       1.68      -1.46      -1.13
O       4.07      -0.85       0.16
O       0.50       0.85      -0.16
C       4.06       1.36      -2.10
C       0.49      -1.36       2.10
C       0.53      -2.01      -1.47
O       6.46      -1.62      -1.09
O       6.41      -1.12       1.60
O       5.20       0.96      -1.58
O       1.63      -0.96       1.58
