13

C      11.63      15.32       7.07
C       8.90      11.23       5.17
Ag       9.19      13.39       7.55
N       9.46      11.68       8.96
N      10.52      10.83       9.14
C       6.47      15.33       7.63
N      10.30      15.33       7.04
N       9.86      16.63       7.28
N      10.53      12.55       4.54
N       5.96      13.22       7.27
N       6.98      14.11       7.56
C       8.59      11.51       9.97
N       9.41      12.44       5.35
