22

Dy       7.04       8.47       4.79
Dy       8.33       9.93       7.88
C       6.12       9.70       1.04
C       6.81       6.99       7.69
C       6.21       8.93       2.31
C       5.77      10.92       7.01
C       9.28       8.69      11.61
C       8.56      11.41       4.97
C       9.18       9.46      10.34
C       9.59       7.46       5.65
O       7.19       8.03       8.33
O       6.53       6.96       6.44
O       5.41       9.21       3.29
O       7.16       8.10       2.49
O       6.44      11.27       8.03
O       6.19       9.95       6.27
O       8.18      10.37       4.33
O       8.84      11.43       6.22
O       9.98       9.19       9.36
O       8.23      10.30      10.17
O       8.93       7.11       4.62
O       9.18       8.44       6.39
