464

C       9.07      17.62       8.72
C      10.14      16.95       8.06
C      10.50      15.61       8.34
C       9.76      14.94       9.35
C       8.71      15.56      10.06
C       8.37      16.89       9.71
C       8.66      18.97       8.37
C       8.76      19.43       7.03
C       8.33      20.72       6.66
C      30.64      21.57       7.64
C      30.51      21.16       8.98
C      30.96      19.86       9.33
C      31.93      22.13      27.74
C      33.01      22.79      28.39
C      33.36      24.14      28.12
C      32.63      24.81      27.10
C      31.58      24.18      26.39
C      31.23      22.86      26.75
C      31.52      20.78      28.08
C      31.63      20.32      29.42
C      31.20      19.02      29.79
C      30.64      18.18      28.81
C      30.51      18.59      27.47
C      30.96      19.89      27.13
C      24.82      29.39      15.98
C      23.75      30.04      15.31
C      23.39      29.77      13.96
C      24.13      28.76      13.29
C      25.18      28.04      13.92
C      25.52      28.40      15.24
C      25.23      29.73      17.32
C      25.12      31.07      17.79
C      25.54      31.44      19.08
C      26.10      30.46      19.93
C      26.24      29.12      19.52
C      25.79      28.78      18.21
C      24.82      10.36      20.48
C      23.75       9.71      21.15
C      23.39       9.98      22.50
C      24.13      10.99      23.16
C      25.18      11.70      22.54
C      25.52      11.35      21.21
C      25.23      10.01      19.13
C      25.12       8.68      18.66
C      25.54       8.31      17.37
C      26.10       9.29      16.53
C      26.24      10.63      16.94
C      25.79      10.97      18.24
C      19.11      10.18       1.27
C      18.04      10.84       1.94
C      17.68      10.56       3.28
C      18.42       9.55       3.95
C      19.47       8.83       3.32
C      19.81       9.19       2.00
C      30.95      10.53      38.35
C      30.85      11.87      37.89
C      31.29      12.24      36.60
C      31.84      11.26      35.75
C      31.97       9.92      36.16
C      31.52       9.57      37.46
C      41.98      29.56      35.19
C      40.91      28.91      34.52
C      40.55      29.19      33.17
C      41.28      30.20      32.50
C      19.47      30.91      33.13
C      19.81      30.56      34.45
C      42.39      29.22      36.53
C      19.42      27.88      36.99
C      19.85      27.51      38.28
C       8.97      28.49       0.70
C       9.10      29.83       0.30
C      42.95      30.18      37.42
C      14.77       2.92      27.92
C      15.85       3.58      27.27
C      16.21       4.93      27.55
C      15.47       5.60      28.56
C      14.42       4.97      29.27
C      14.08       3.65      28.92
C      14.36       1.57      27.58
C      14.46       1.11      26.24
C      25.45      38.25      25.87
C      24.90      37.40      26.84
C      24.78      37.81      28.19
C      13.80       0.68      28.54
C      14.77      36.83       8.53
C      15.85      36.16       9.19
C      16.21      34.82       8.91
C      15.47      34.15       7.89
C      14.42      34.78       7.18
C      14.08      36.10       7.54
C      14.36      38.17       8.88
C      25.89       0.21      10.22
C      25.45       1.49      10.59
C      24.89       2.34       9.61
C      24.78       1.94       8.27
C      25.23       0.64       7.92
C      16.63      11.29       3.96
C      16.44      12.68       3.76
C      15.44      13.40       4.45
C      14.59      12.77       5.39
C      14.76      11.38       5.58
C      15.75      10.66       4.88
C      13.59      13.51       6.12
C      12.74      14.44       5.49
C      11.74      15.13       6.22
C      11.55      14.93       7.61
C      12.42      14.01       8.24
C      13.41      13.31       7.52
C      39.49      28.46      32.50
C      39.31      27.06      32.69
C      38.31      26.34      32.00
C      37.45      26.98      31.07
C      37.63      28.37      30.88
C      38.62      29.09      31.58
C      36.46      26.24      30.33
C      35.60      25.30      30.96
C      34.60      24.61      30.24
C      34.42      24.81      28.85
C      35.29      25.73      28.22
C      36.28      26.43      28.94
C      17.26      34.15       9.64
C      17.45      34.34      11.03
C      18.44      33.65      11.75
C      19.30      32.72      11.12
C      19.13      32.53       9.73
C      18.14      33.23       9.01
C      20.30      31.98      11.86
C      21.15      32.61      12.79
C      22.15      31.89      13.48
C      22.34      30.50      13.29
C      21.46      29.87      12.36
C      20.47      30.59      11.66
C      17.26       5.60      26.82
C      17.45       5.41      25.42
C      18.44       6.10      24.70
C      19.30       7.03      25.33
C      19.13       7.22      26.73
C      18.14       6.52      27.45
C      20.30       7.77      24.60
C      21.15       7.14      23.66
C      22.15       7.86      22.97
C      22.34       9.25      23.17
C      21.46       9.88      24.09
C      20.47       9.16      24.79
C      26.87      11.56      16.05
C      28.03      12.26      16.44
C      28.80      12.97      15.49
C      28.44      12.99      14.12
C      27.24      12.34      13.75
C      26.47      11.63      14.70
C      29.27      13.62      13.13
C      29.81      14.91      13.33
C      30.58      15.53      12.33
C       7.98      14.89      11.10
C       7.47      13.59      10.91
C      29.56      12.97      11.91
C      26.87      28.19      20.40
C      28.03      27.48      20.01
C      28.80      26.77      20.96
C      28.44      26.75      22.33
C      27.24      27.41      22.70
C      26.47      28.11      21.76
C      29.27      26.13      23.32
C      29.81      24.84      23.12
C      30.58      24.21      24.12
C      30.85      24.85      25.36
C      30.34      26.16      25.54
C      29.56      26.78      24.55
C      29.88      22.05       9.91
C      28.72      21.66      10.63
C      27.96      22.61      11.33
C      28.32      23.98      11.35
C      29.51      24.35      10.69
C      30.28      23.40       9.99
C      27.49      24.97      11.97
C      26.95      24.77      13.26
C      26.18      25.77      13.89
C      25.90      27.01      13.25
C      26.42      27.19      11.94
C      27.20      26.20      11.32
C      29.88      17.70      26.54
C      28.72      18.09      25.83
C      27.96      17.14      25.12
C      28.32      15.77      25.10
C      29.51      15.40      25.76
C      30.28      16.34      26.47
C      27.49      14.77      24.48
C      26.94      14.97      23.19
C      26.18      13.97      22.56
C      25.90      12.74      23.21
C      26.42      12.55      24.51
C      27.20      13.55      25.13
C      24.15       2.83       7.34
C      23.00       2.44       6.62
C      22.24       3.39       5.90
C      22.60       4.77       5.90
C      23.79       5.13       6.56
C      24.55       4.18       7.27
C      21.77       5.76       5.27
C      21.23       5.56       3.98
C      20.47       6.56       3.35
C      20.19       7.80       4.00
C      20.70       7.98       5.30
C      21.48       6.98       5.93
C      24.15      36.92      29.12
C      23.00      37.30      29.84
C      22.24      36.35      30.55
C      22.60      34.98      30.56
C      23.79      34.61      29.89
C      24.55      35.56      29.19
C      21.77      33.99      31.18
C      21.23      34.18      32.47
C      20.46      33.18      33.10
C      20.19      31.95      32.46
C      20.70      31.77      31.15
C      21.48      32.76      30.53
C      32.60       8.99      35.27
C      33.75       8.27      35.66
C      34.52       7.56      34.71
C      34.16       7.55      33.34
C      32.96       8.21      32.97
C      32.20       8.91      33.91
C      12.12       6.92      32.35
C      12.66       5.63      32.54
C      13.42       5.00      31.54
C      13.70       5.64      30.31
C      13.19       6.95      30.13
C      12.41       7.57      31.12
C       9.73      30.76       1.18
C      10.88      31.48       0.80
C      11.65      32.19       1.75
C      11.29      32.20       3.12
C      32.96      31.54       3.49
C      32.20      30.83       2.54
C      12.12      32.82       4.11
C      12.66      34.12       3.91
C      13.42      34.75       4.91
C      13.70      34.10       6.14
C      13.19      32.80       6.33
C      12.41      32.17       5.33
C       8.46      21.22       5.35
C       9.57      22.02       5.02
C       9.56      22.83       3.87
C       8.43      22.87       3.03
C      30.20      22.03       3.33
C      30.21      21.22       4.48
C       8.33      23.88       2.02
C      30.06      24.72       1.96
C      30.04      25.86       1.14
C       8.29      26.19       0.35
C       9.41      25.34       0.36
C       9.43      24.19       1.18
C      31.32      18.53      31.11
C      32.44      17.73      31.43
C      32.43      16.92      32.58
C      31.29      16.87      33.43
C      30.20      17.72      33.12
C      30.21      18.53      31.97
C      31.19      15.87      34.44
C      30.05      15.03      34.50
C      30.04      13.88      35.31
C      31.16      13.55      36.10
C      32.28      14.41      36.09
C      32.29      15.56      35.28
C      25.40      32.75      19.58
C      24.29      33.06      20.41
C      24.30      34.21      21.21
C      25.42      35.08      21.24
C      26.51      34.78      20.37
C      26.50      33.63      19.56
C      25.52      36.09      22.23
C      26.68      36.17      23.06
C      26.70      36.99      24.20
C      25.57      37.76      24.55
C      24.43      37.73      23.71
C      24.42      36.91      22.56
C      25.40       7.00      16.87
C      24.30       6.69      16.05
C      24.31       5.54      15.24
C      25.42       4.67      15.22
C      26.51       4.96      16.09
C      26.50       6.11      16.89
C      25.52       3.65      14.22
C      26.68       3.57      13.40
C      26.69       2.75      12.26
C      25.56       1.98      11.91
C      24.42       2.02      12.75
C      24.41       2.84      13.89
H      10.70      17.47       7.38
H      30.42      17.31      10.16
H       9.99      13.97       9.57
H       9.12      18.82       6.30
H      30.30      22.49       7.36
H      30.89      19.58      10.31
H      33.56      22.27      29.07
H      30.42      22.44      26.30
H      32.85      25.78      26.88
H      31.99      20.93      30.16
H      30.30      17.25      29.10
H      30.89      20.17      26.15
H      23.19      30.72      15.82
H      26.34      27.95      15.67
H      23.90      28.53      12.32
H      24.75      31.81      17.18
H      26.43      30.74      20.86
H      25.86      27.80      17.93
H      23.19       9.02      20.63
H      26.34      11.79      20.79
H      23.90      11.22      24.14
H      24.75       7.94      19.28
H      26.44       9.00      15.60
H      25.86      11.95      18.53
H      17.48      11.52       1.42
H      20.63       8.74       1.58
H      18.19       9.32       4.92
H      19.06      12.60       0.07
H      32.18      11.54      34.83
H      31.58       8.59      37.74
H      40.35      28.23      35.03
H      20.63      31.00      34.88
H      41.06      30.43      31.53
H      19.06      27.14      36.38
H       9.31      28.21       1.63
H      43.02      31.16      37.14
H      16.40       3.07      26.59
H      13.26       3.23      29.37
H      15.70       6.57      28.79
H      14.82       1.73      25.50
H      24.55      36.48      26.56
H      13.74       0.96      29.52
H      16.40      36.68       9.87
H      13.26      36.52       7.09
H      15.70      33.18       7.67
H      14.81      38.02      10.95
H      24.55       3.27       9.89
H       2.31       0.36       6.94
H      14.15      10.87       6.22
H      15.81       9.65       5.04
H      12.80      14.60       4.49
H      11.12      15.76       5.70
H      12.36      13.85       9.25
H      17.06      13.20       3.14
H      14.02      12.67       8.03
H      15.37      14.41       4.30
H      37.02      28.88      30.23
H      38.68      30.10      31.42
H      35.67      25.15      31.97
H      33.98      23.99      30.76
H      35.23      25.90      27.21
H      39.93      26.54      33.32
H      36.89      27.08      28.43
H      38.24      25.33      32.16
H      19.74      31.89       9.22
H      18.08      33.07       8.00
H      21.08      33.62      12.95
H      22.77      32.41      14.11
H      21.53      28.86      12.20
H      16.82      34.96      11.55
H      19.87      30.08      11.02
H      18.51      33.80      12.76
H      19.74       7.86      27.24
H      18.08       6.68      28.46
H      21.08       6.13      23.50
H      22.77       7.34      22.34
H      21.53      10.89      24.26
H      16.82       4.78      24.90
H      19.87       9.67      25.44
H      18.51       5.94      23.69
H      26.93      12.34      12.78
H      25.64      11.13      14.37
H      29.62      15.42      14.20
H      30.94      16.47      12.52
H       7.63      13.09      10.03
H      28.38      12.20      17.40
H      29.20      12.02      11.72
H      29.67      13.41      15.80
H      26.92      27.40      23.68
H      25.64      28.61      22.08
H      29.62      24.33      22.26
H      30.94      23.27      23.94
H      30.49      26.65      26.43
H      28.38      27.55      19.05
H      29.20      27.72      24.73
H      29.67      26.34      20.65
H      29.83      25.32      10.69
H      31.11      23.73       9.48
H      27.14      23.91      13.78
H      25.82      25.59      14.83
H      26.26      28.07      11.45
H      28.37      20.70      10.56
H      27.55      26.38      10.38
H      27.08      22.30      11.77
H      29.83      14.42      25.76
H      31.11      16.02      26.97
H      27.14      15.84      22.68
H      25.82      14.16      21.62
H      26.26      11.67      25.01
H      28.37      19.05      25.90
H      27.55      13.37      26.08
H      27.08      17.44      24.68
H      24.10       6.11       6.57
H      25.38       4.51       7.78
H      21.43       4.70       3.46
H      20.11       6.38       2.41
H      20.54       8.86       5.80
H      22.65       1.48       6.68
H      21.83       7.16       6.87
H      21.37       3.09       5.46
H      24.10      33.64      29.89
H      25.38      35.24      28.68
H      21.43      35.05      32.99
H      20.11      33.36      34.04
H      20.54      30.89      30.65
H      22.65      38.26      29.78
H      21.83      32.58      29.59
H      21.37      36.66      30.99
H      32.65       8.21      31.99
H      31.37       9.42      33.59
H      12.46       5.11      33.41
H      13.78       4.06      31.73
H      13.35       7.45      29.25
H      34.10       8.33      36.62
H      12.06       8.52      30.94
H      35.39       7.12      35.02
H      32.65      31.54       4.46
H      31.37      30.33       2.87
H      12.46      34.63       3.05
H      13.78      35.69       4.73
H      13.35      32.30       7.21
H      22.67      31.41      38.26
H      12.06      31.23       5.52
H      12.52      32.63       1.44
H      29.35      22.05       2.76
H      29.36      20.70       4.73
H      29.27      24.57       2.59
H      29.25      26.51       1.21
H      21.70      25.59      38.28
H      10.36      22.10       5.67
H      10.28      23.62       1.21
H      10.34      23.47       3.73
H      29.35      17.70      33.69
H      29.36      19.05      31.72
H      29.27      15.18      33.86
H      29.25      13.24      35.24
H      33.13      14.16      36.60
H      33.23      17.65      30.78
H      33.15      16.12      35.24
H      33.21      16.28      32.72
H      27.35      35.37      20.38
H      27.34      33.40      19.03
H      27.47      35.55      22.90
H      27.50      36.93      24.83
H      23.57      38.22      23.98
H      23.52      32.39      20.50
H      23.55      36.86      22.01
H      23.53      34.34      21.87
H      27.35       4.37      16.08
H      27.34       6.35      17.43
H      27.47       4.19      13.56
H       4.63       2.81      11.62
H      23.57       1.53      12.48
H      23.52       7.36      15.95
H      23.55       2.89      14.44
H      23.53       5.41      14.58
