15

N      11.13       3.99       2.43
H       9.33       4.13       5.27
H      10.84       2.62       3.96
H      11.27       5.43       0.95
H       9.80       7.08       2.15
N       7.92       6.23       5.67
N       8.41       7.94       4.31
N       7.30       7.33       6.07
N       7.60       8.36       5.27
C      10.59       3.62       3.61
C       9.75       4.45       4.32
C       9.45       5.73       3.82
C      10.01       6.10       2.59
C      10.84       5.20       1.92
C       8.60       6.62       4.58
