15

N      12.00      11.66      12.47
N       8.90      10.94       8.43
N       8.05      10.11       7.82
N       7.94       8.96       8.50
N       8.72       9.01       9.57
H      12.00      13.48      11.48
H      10.44      12.72       9.67
H      10.27       8.88      11.63
H      11.87       9.78      13.34
C      11.60      12.47      11.47
C      10.73      12.04      10.47
C      10.23      10.73      10.51
C      10.64       9.90      11.57
C      11.52      10.40      12.51
C       9.30      10.24       9.51
