15

N       4.54       6.15       6.99
N       3.77       6.10       5.93
H       2.22       6.23       3.86
H       0.62       5.33       2.15
C       0.89       2.64       4.03
C       1.76       3.07       5.02
C       2.26       4.38       4.98
C       1.85       5.21       3.93
C       0.97       4.71       2.98
C       3.19       4.87       5.99
H       0.49       1.63       4.01
N       4.44       5.00       7.67
N       0.49       3.45       3.03
N       3.59       4.18       7.07
H       2.05       2.40       5.83
