15

C       7.13       4.91      11.78
C       8.00       4.48      12.77
H       6.73       5.93      11.76
H       6.86       2.22       9.90
C       7.21       2.84      10.73
C       8.09       2.35      11.67
H       8.29       5.16      13.57
C       8.50       3.17      12.73
C       9.43       2.68      13.73
H       8.46       1.32      11.61
N       6.74       4.10      10.77
N       9.83       3.38      14.82
N      10.68       2.55      15.42
N      10.79       1.41      14.74
N      10.01       1.46      13.67
