22

Cr       0.93       0.55       0.60
Cr       2.57       3.53       0.12
Cr       4.31       0.59       0.08
C       0.77       3.05       2.40
C       5.16       2.94       1.69
C       2.81      -0.31       2.48
C       0.16       2.76      -1.41
C       4.59       2.67      -2.04
C       2.16      -0.51      -1.59
O       5.44       1.76       1.32
O       3.78      -0.43       1.64
O       1.17      -0.89      -0.84
O       0.13       1.67      -0.76
O       0.98       3.69      -1.16
O       3.70       3.34      -1.44
O       4.99       1.55      -1.61
O       3.36      -0.63      -1.08
O       2.60       1.56       0.26
O       1.62      -0.67       2.09
O       0.55       1.87       1.95
O       1.43       3.91       1.77
O       4.12       3.54       1.28
