98

Cu       0.02       4.36      10.49
Cu       4.12      -0.00      20.97
H       3.40       3.26      10.55
H       1.51       8.17      10.41
H       7.73       5.90      13.41
H       3.70       5.81      13.84
H       4.22       6.92      18.05
H       0.08       7.48      17.39
H       4.88       5.46      10.42
H       6.76       0.55      10.56
H       0.55       2.82       7.56
H       4.58       2.91       7.14
H       4.06       1.80       2.93
H       8.20       1.24       3.58
H       0.74       1.10       0.07
H       2.66       4.91      20.90
H       4.69       7.18       2.92
H       0.47       7.27       3.35
H       8.20       6.16       7.56
H       4.10       5.60       6.91
H       7.54       7.62      20.91
H       5.62       3.81       0.07
H       3.59       1.54      18.05
H       7.81       1.45      17.62
H       0.08       2.56      13.41
H       4.18       3.12      14.07
C       2.63       2.50      10.53
C       1.64       0.52      10.48
C       0.53       5.75      13.19
C       2.72       5.69      13.41
C       3.19       7.19      18.21
C       1.04       7.48      17.88
C       5.65       6.22      10.44
C       6.64       8.20      10.50
C       7.75       2.97       7.79
C       5.56       3.03       7.57
C       5.09       1.53       2.76
C       7.24       1.24       3.10
C       1.51       1.86       0.05
C       2.50       3.84      20.97
C       3.64       7.33       2.70
C       1.46       7.39       2.92
C       0.98       5.89       7.73
C       3.13       5.60       7.39
C       6.76       6.86      20.92
C       5.78       4.88       0.01
C       4.64       1.39      18.27
C       6.82       1.33      18.05
C       7.30       2.83      13.24
C       5.15       3.12      13.58
N       1.32       2.68      10.67
N       0.70       1.43      10.60
N       2.87       1.15      10.41
N       4.14       0.62      10.31
N       1.05       5.30      12.06
N       2.43       5.25      12.20
N       1.55       6.02      14.08
N       1.31       6.48      15.35
N       2.68       7.69      19.32
N       1.31       7.88      19.11
N       2.20       7.04      17.27
N       2.44       6.55      16.00
N       6.96       6.04      10.30
N       7.58       7.29      10.37
N       5.41       7.57      10.56
N       4.14       8.10      10.66
N       7.23       3.43       8.91
N       5.85       3.47       8.78
N       6.73       2.70       6.90
N       6.97       2.24       5.62
N       5.60       1.03       1.65
N       6.96       0.84       1.86
N       6.08       1.68       3.71
N       5.84       2.17       4.98
N       2.82       1.68       0.18
N       3.44       2.93       0.12
N       1.27       3.21      20.90
N       8.25       3.74      20.80
N       3.12       7.79       1.58
N       1.74       7.83       1.71
N       2.63       7.06       3.59
N       2.86       6.60       4.87
N       1.50       5.39       8.84
N       2.86       5.20       8.62
N       1.97       6.04       6.78
N       1.73       6.53       5.51
N       5.46       7.04      20.79
N       4.84       5.79      20.86
N       7.01       5.51       0.07
N       0.03       4.98       0.18
N       5.16       0.93      19.39
N       6.54       0.89      19.26
N       5.65       1.66      17.38
N       5.42       2.12      16.10
N       6.78       3.33      12.14
N       5.42       3.52      12.35
N       6.31       2.68      14.19
N       6.55       2.19      15.46
