18

Cu       2.38       4.71       6.81
Cu       0.78       6.67       6.05
C       2.21       7.02       8.49
O      -0.35       8.30       5.22
O       3.81       5.68       5.80
O       2.42       7.39       5.16
C      -1.52       8.32       4.77
C       3.54       6.80       5.25
O       1.82       3.82       5.11
O       0.38       5.49       4.48
C       4.68       3.05       8.09
O       3.51       3.08       7.64
O      -0.64       5.70       7.06
O       0.74       3.99       7.70
C       0.95       4.36       4.37
C      -0.37       4.58       7.61
O       1.34       7.56       7.75
O       2.78       5.89       8.38
