22

Cr       6.58       3.71       9.37
Cr       8.18       6.76       9.38
Cr      10.00       3.82       9.36
C       5.98       6.12      11.29
C      10.50       6.02      11.32
C       8.19       2.67      11.48
C       5.99       6.10       7.46
C      10.42       6.02       7.40
C       8.24       2.14       7.44
O       7.10       2.36      10.87
O       9.51       6.71       7.99
O      10.87       4.93       7.86
O       9.26       2.68       7.97
O       8.25       4.76       9.37
O       5.97       4.92      10.77
O       6.80       6.99      10.89
O       9.54       6.69      10.77
O      10.91       4.91      10.87
O       9.29       2.66      10.75
O       7.07       2.38       7.86
O       5.94       4.94       7.99
O       6.77       7.02       7.88
