20

Mn       1.68       6.27       7.25
Mn       1.96       2.08       8.72
C      -1.08       7.43       6.36
C      -1.21       5.33       7.34
C       4.53       1.33      10.33
C       5.00       2.10       8.19
N      -0.46       6.40       6.98
N       4.08       1.82       9.15
O       1.35       0.93      10.60
O       1.49      -0.06       8.62
O       2.11       2.25       6.66
O       2.16       4.49       6.48
O       1.82       6.06       9.31
O       1.27       3.87       9.38
O       2.25       8.30       7.24
O       2.20       7.39       5.21
C       1.35      -0.13       9.89
C       2.24       3.33       5.98
C       1.51       5.00       9.95
C       2.36       8.41       5.96
