28

H       2.50       5.72       6.86
H       2.02       3.34      10.40
H       2.82       7.57      10.73
H       3.43       3.30      12.07
H       3.52       2.91      14.52
H       1.91       6.83      15.21
H       1.72       7.19      12.75
C       2.70       6.77       8.74
C       2.48       5.64       7.95
C       2.21       4.41       8.56
C       2.22       4.31       9.95
C       2.46       5.43      10.76
C       2.65       6.67      10.14
C       2.54       5.26      12.23
C       3.05       4.06      12.75
C       3.13       3.84      14.12
C       2.71       4.84      15.01
C       2.22       6.06      14.51
C       2.13       6.26      13.13
C       2.97       8.09       8.11
C       1.88       3.21       7.74
C       2.76       4.59      16.49
O       2.68       9.16       8.69
O       3.50       8.10       6.90
O       1.57       3.34       6.50
O       1.90       2.07       8.32
O       3.18       3.42      16.82
O       2.42       5.53      17.27
