28

H       8.66       8.99       5.64
H       9.14      11.37       2.11
H       8.34       7.14       1.78
H       7.73      11.41       0.44
H       7.64      11.79      -2.01
H       9.25       7.88      -2.70
H       9.44       7.51      -0.24
C       8.46       7.93       3.77
C       8.68       9.07       4.56
C       8.95      10.29       3.95
C       8.94      10.40       2.56
C       8.70       9.28       1.74
C       8.51       8.03       2.37
C       8.62       9.45       0.28
C       8.11      10.65      -0.24
C       8.03      10.86      -1.61
C       8.45       9.87      -2.51
C       8.94       8.65      -2.00
C       9.03       8.45      -0.62
C       8.19       6.62       4.40
C       9.28      11.50       4.76
C       8.40      10.11      -3.98
O       8.48       5.54       3.82
O       7.66       6.60       5.60
O       9.59      11.36       6.00
O       9.26      12.64       4.19
O       7.98      11.29      -4.31
O       8.74       9.18      -4.76
