14

Cu       8.54       9.71       4.73
Cu       8.03       9.13       2.41
O       6.62       9.63       5.18
O       6.14       9.10       3.01
O       8.32      11.58       4.14
O       7.85      11.05       1.97
C       8.53       6.96       4.22
C      10.76       9.50       2.92
O       8.24       7.25       3.01
O       8.71       7.79       5.18
O      10.42       9.73       4.14
O       9.95       9.19       1.97
C       5.82       9.35       4.22
C       8.05      11.88       2.92
