50

Mn      10.36       9.10       5.00
Mn      12.04       6.79       6.99
O      15.14       5.42       6.24
O      12.90       5.29       5.94
O      10.14       7.34       4.01
O      10.53       8.27       6.90
O      13.51       7.27       8.40
Mn       8.64       7.32       7.24
O       8.82       6.17       5.43
Mn      15.45       7.32       7.24
O      12.11       8.88       9.17
Mn       6.93       5.54       9.47
Mn       5.24       7.85       7.48
O       4.38       9.35       8.53
O      15.75       9.22       8.24
O       8.47       8.47       9.04
H      10.84       8.78       7.69
O       6.76       6.37       7.57
O       3.78       7.37       6.07
O       7.14       7.30      10.46
O       5.18       5.76       5.30
H      13.91       8.43      10.03
H       6.44       5.86       6.78
H       3.38       6.21       4.44
C       9.40       6.33       4.32
C      14.11       4.94       5.67
C       7.39      10.76       4.90
C       6.24      10.43       5.66
C      13.50       9.86       4.12
C      14.70       9.31       4.64
C      13.17       8.23       9.23
C       7.89       8.31      10.15
C       3.18       9.70       8.80
C       9.90       3.88       9.57
C      11.05       4.21       8.81
C       3.79       4.78      10.35
C      16.19       5.33       9.83
C       4.12       6.41       5.24
N       6.52       9.29       6.36
N       7.77       8.95       6.06
N       8.35       9.81       5.20
N      12.46       9.26       4.80
N      13.02       8.38       5.66
N      14.35       8.39       5.59
N      10.77       5.35       8.11
N       9.52       5.69       8.41
N       8.94       4.83       9.27
N       4.83       5.38       9.67
N       4.27       6.26       8.81
N      16.54       6.25       8.88
