16

C       8.59       8.75      14.57
C       7.52       8.86      15.47
H       4.97       9.27      13.26
H       7.72       8.79      16.54
H       9.60       8.59      14.95
C       5.98       9.12      13.63
C       7.04       9.01      12.73
C       6.21       9.02      15.01
H       9.16       8.68      12.48
C       8.35       8.80      13.20
C       6.74       9.00      11.27
C       5.05       9.03      15.95
O       5.64       9.53      10.89
O       7.55       8.40      10.49
O       3.89       8.94      15.44
O       5.25       9.12      17.21
