16

H       6.52      16.37      25.16
H       4.65      14.73      25.27
C       8.06      14.86      25.26
H       9.35      13.15      25.51
C       6.72      15.30      25.22
C       5.68      14.38      25.29
C       7.28      12.57      25.51
C       8.32      13.50      25.43
C       9.21      15.82      25.19
O      10.40      15.31      25.19
O       9.00      17.07      25.13
C       5.95      13.01      25.41
C       7.61      11.13      25.78
O       8.82      10.88      26.14
O       6.74      10.22      25.66
H       5.14      12.28      25.43
