34

C      11.61       5.25      36.21
C      11.63       3.84      36.28
C      11.50       3.11      35.12
C      11.38       3.78      33.88
C      11.28       3.15      32.61
C      11.23       1.78      30.87
C      11.27       0.56      30.08
C      11.35      -0.73      30.63
C      11.41      -1.83      29.77
C      11.42      -1.62      28.39
C      11.28       0.68      28.68
C      11.22       3.86      31.40
C      11.23       5.30      31.39
C      11.18       6.07      30.22
C      11.22       7.45      30.31
C      11.28       8.04      31.59
C      11.29       5.97      32.65
C      11.38       5.21      33.89
N      11.49       5.90      35.05
N      11.30       7.32      32.71
N      11.19       3.01      30.34
N      11.28       1.82      32.25
N      11.37      -0.38      27.86
H      11.23       1.00      32.90
H      11.71       5.87      37.10
H      11.74       3.34      37.24
H      11.49       2.02      35.15
H      11.37      -0.88      31.70
H      11.47      -2.84      30.17
H      11.49      -2.43      27.67
H      11.24       1.66      28.22
H      11.12       5.57      29.25
H      11.21       8.08      29.42
H      11.31       9.12      31.72
