32

H      14.91       8.62       3.58
H      12.22       5.82       5.46
H       8.54       3.61       2.34
H       7.14       5.78       5.81
H       4.85       2.49       4.23
H      10.91       8.13       2.04
C       5.72       3.13       4.18
C      10.16       6.26       3.85
C       9.12       5.62       3.98
C      12.42       6.58       4.70
C       7.97       4.81       4.06
C       7.79       3.78       3.11
C      13.93       8.14       3.64
C       6.68       2.94       3.18
C      14.74       6.79       5.61
C      11.41       6.92       3.77
C       7.00       4.99       5.08
C      13.67       7.18       4.63
C      11.68       7.88       2.76
C      13.28       9.49       1.66
C       4.84       4.31       6.19
C      12.94       8.48       2.71
C       5.88       4.16       5.13
C       6.53       1.83       2.18
O      14.63       5.66       6.16
O      15.70       7.62       5.81
O      14.50       9.74       1.42
O       4.05       3.35       6.43
O       4.77       5.43       6.84
O       7.60       1.42       1.62
O      12.34      10.09       1.01
O       5.36       1.37       1.97
