534

H      14.79      14.96      18.86
H      16.05      15.97      17.09
H      17.53      17.17      15.58
H      19.14      18.51      14.42
H      20.58      20.01      18.11
H      17.03      17.12      21.72
H      16.81      20.63      19.12
H      18.41      23.25      22.03
H      19.96      21.56      22.72
H      20.37      16.08      19.95
H      21.32      19.61      23.18
H      22.59      17.58      23.23
H       6.45      34.79      23.00
H       7.69      32.74      22.94
H       9.20      30.85      22.60
H      10.92      29.26      22.06
H      12.49      31.91      19.16
H       8.81      36.36      19.87
H       8.58      32.36      18.04
H      10.12      33.65      14.32
H      11.68      35.08      15.44
H      12.15      35.34      21.58
H      13.04      36.45      16.92
H      14.32      37.50      18.65
H      23.05      28.70       4.05
H      24.32      29.65       5.85
H       0.74      30.29       7.65
H       2.49      30.59       9.27
H       4.01      26.74       8.40
H       0.27      25.18       4.23
H      25.23      25.60       8.65
H       1.48      21.65       9.26
H       3.01      21.88       7.43
H       3.65      27.14       4.27
H       4.42      22.50       5.54
H       5.72      23.49       3.79
H       2.25      11.29      26.79
H       3.52      10.29      28.56
H       5.01       9.09      30.07
H       6.61       7.73      31.22
H       8.00       6.19      27.53
H       4.45       9.08      23.93
H       4.24       5.60      26.58
H       5.66       3.02      23.54
H       7.23       4.68      22.84
H       7.84      10.11      25.69
H       8.65       6.61      22.40
H       9.96       8.62      22.35
H      18.87      -8.53      22.37
H      20.15      -6.50      22.37
H      21.65      -4.60      22.67
H      23.26      -2.94      23.28
H      24.65      -5.39      26.43
H      21.06      -9.94      25.70
H      20.90      -5.89      27.43
H      22.31      -7.26      31.17
H      23.86      -8.72      30.07
H      24.46      -8.93      23.94
H       0.15     -10.07      28.61
H       1.44     -11.11      26.89
H      10.63      -2.41      41.88
H      11.90      -3.44      40.14
H      13.38      -4.13      38.33
H      14.97      -4.45      36.56
H      16.37      -0.48      37.09
H      12.82       1.17      41.41
H      12.63       0.62      37.06
H      14.04       4.54      36.33
H      15.60       4.33      38.13
H      16.21      -0.85      41.42
H      17.02       3.75      40.03
H      18.32       2.80      41.80
H      22.18      19.54      13.24
H      23.18      20.15      11.20
H      24.57      26.79      12.21
H      24.90      27.03      13.93
H      23.32      27.47      13.25
H      23.10      26.96      15.70
H      23.26      25.56      16.76
H      21.67      25.98      16.08
H      21.86      21.54      16.22
H      24.07      21.75       9.73
H      13.55      27.50      22.16
H      14.86      25.59      22.61
H      16.18      23.26      16.28
H      16.26      24.65      15.19
H      14.79      23.65      15.25
H      14.24      25.98      14.48
H      14.23      27.61      15.15
H      12.77      26.62      15.22
H      11.75      28.05      19.55
H      15.99      23.67      21.94
H       5.18      31.55      10.65
H       6.55      32.90      12.02
H       7.94      28.63      17.23
H       7.98      26.99      16.60
H       6.54      27.58      17.46
H       5.91      25.72      15.87
H       5.86      25.46      14.12
H       4.43      26.06      14.98
H       3.36      29.07      11.56
H       7.74      33.29      13.98
H       9.57       6.65      32.42
H      10.56       6.04      34.47
H      12.06      -0.57      33.41
H      12.40      -0.79      31.69
H      10.82      -1.26      32.36
H      10.61      -0.73      29.91
H      10.76       0.69      28.86
H       9.18       0.23      29.52
H       9.29       4.67      29.42
H      11.51       4.47      35.92
H       1.11      -1.37      23.61
H       2.13       0.69      23.14
H       3.70       3.00      29.41
H       4.03       1.60      30.44
H       2.46       2.43      30.54
H       2.22       0.04      31.28
H       2.35      -1.57      30.56
H       0.78      -0.75      30.64
H       0.84      -3.01      26.82
H       3.13       2.71      23.79
H      17.89      -4.95      34.99
H      18.85      -6.40      33.42
H      20.35      -2.15      28.25
H      20.72      -0.56      28.94
H      19.13      -0.87      28.20
H      18.95       0.97      29.91
H      19.12       1.15      31.66
H      17.53       0.83      30.94
H      17.64      -1.35      34.81
H      19.77      -6.86      31.31
H      23.06      12.81      21.56
H      24.26      11.01      22.57
H       4.35      14.26      25.60
H       3.74      15.84      26.15
H       4.75      15.72      24.68
H       3.26      17.76      24.58
H       1.54      18.11      24.46
H       2.53      18.01      23.00
H      24.15      16.27      21.45
H       0.66      10.71      24.78
H      14.81      38.39      23.60
H      15.73     -12.02      24.67
H      21.00     -11.09      20.40
H      20.71      40.79      18.76
H      21.69      39.56      19.60
H      20.21      38.48      17.87
H      18.48      38.22      17.60
H      19.45      36.99      18.43
H      15.90      36.59      20.63
H      17.28      -9.98      23.85
H       6.30      27.38       0.64
H       7.50       1.35      43.76
H      12.74      -2.88      45.02
H      12.14      21.93       0.90
H      13.14      23.25       1.56
H      11.65      22.28       3.35
H       9.92      22.19       3.71
H      10.90      23.51       4.38
H       7.36      25.65       3.65
H       9.04      -0.39      42.38
H      10.51      13.36      24.07
H      11.71      15.18      23.10
H      16.88      11.97      19.96
H      16.27      10.41      19.38
H      17.29      10.49      20.84
H      15.79       8.45      20.90
H      14.06       8.11      21.02
H      15.06       8.17      22.48
H      11.58       9.88      24.07
H      13.22      15.51      20.88
H       1.99     -11.94      21.92
H       3.47      38.47      20.83
H       8.63      37.30      25.17
H       7.73     -14.60      26.81
H       8.75     -13.38      26.01
H       7.27     -12.30      27.75
H       5.54     -12.01      27.99
H       6.56     -10.78      27.21
H       3.07     -10.22      24.93
H       4.95      36.38      21.60
H      18.84      -1.02      45.07
H      20.02      25.02       1.95
H      25.27      29.25       0.72
H      24.68       4.43      44.82
H       0.57       3.10      44.19
H      24.22       4.06      42.37
H      22.49       4.14      41.99
H      23.48       2.82      41.34
H      19.94       0.68      42.04
H      21.54      26.71       3.36
C      19.83      18.03      20.58
C      20.12      19.03      21.52
C      19.27      20.10      21.34
C      18.37      19.82      20.30
C      17.44      20.81      19.90
C      17.41      22.07      20.56
C      18.36      22.33      21.58
C      19.28      21.35      21.99
C      21.13      18.88      22.48
C      21.87      17.69      22.51
C      21.64      16.65      21.57
C      20.59      16.82      20.62
C      17.54      17.51      19.70
C      17.25      17.15      18.38
C      18.13      17.79      17.52
C      19.01      18.58      18.26
C      18.18      17.75      16.12
C      19.12      18.54      15.44
C      20.01      19.38      16.16
C      19.96      19.40      17.58
C      16.79      16.91      20.75
C      15.74      16.00      20.46
C      15.49      15.67      19.10
C      16.23      16.24      18.06
C      18.69      18.47      19.72
C      11.59      34.94      19.57
C      11.87      35.28      18.24
C      11.01      34.58      17.39
C      10.14      33.80      18.16
C       9.21      32.96      17.49
C       9.16      32.92      16.07
C      10.09      33.70      15.34
C      11.01      34.54      15.99
C      12.87      36.20      17.89
C      13.61      36.80      18.91
C      13.39      36.48      20.28
C      12.35      35.56      20.60
C       9.29      34.38      20.45
C       8.96      33.36      21.35
C       9.85      32.31      21.20
C      10.79      32.63      20.22
C       9.89      31.08      21.88
C      10.89      30.15      21.55
C      11.84      30.43      20.54
C      11.81      31.69      19.89
C       8.55      35.59      20.48
C       7.47      35.74      21.40
C       7.17      34.68      22.29
C       7.90      33.48      22.26
C      10.46      33.96      19.61
C       3.05      25.59       5.59
C       3.29      24.25       5.93
C       2.43      23.87       6.95
C       1.60      24.95       7.29
C       0.69      24.81       8.37
C       0.60      23.58       9.09
C       1.47      22.52       8.72
C       2.38      22.65       7.66
C       4.27      23.48       5.29
C       5.03      24.07       4.27
C       4.84      25.42       3.90
C       3.82      26.17       4.55
C       0.77      26.66       5.66
C       0.45      27.95       6.10
C       1.36      28.34       7.08
C       2.29      27.31       7.28
C       1.42      29.54       7.81
C       2.44      29.71       8.76
C       3.39      28.69       9.01
C       3.32      27.49       8.24
C      25.13      26.10       4.59
C      24.05      26.82       4.01
C      23.78      28.13       4.49
C      24.52      28.69       5.54
C       1.94      26.13       6.43
C       7.25       8.17      25.05
C       7.50       7.18      24.09
C       6.63       6.12      24.27
C       5.77       6.41      25.34
C       4.84       5.42      25.76
C       4.76       4.17      25.09
C       5.65       3.93      24.01
C       6.58       4.89      23.60
C       8.49       7.33      23.11
C       9.26       8.51      23.08
C       9.06       9.53      24.04
C       8.03       9.37      25.01
C       4.98       8.72      25.95
C       4.71       9.09      27.27
C       5.58       8.44      28.13
C       6.45       7.63      27.38
C       5.64       8.50      29.53
C       6.58       7.69      30.20
C       7.45       6.83      29.49
C       7.39       6.81      28.06
C       4.22       9.31      24.90
C       3.18      10.23      25.20
C       2.95      10.58      26.55
C       3.69      10.01      27.59
C       6.12       7.74      25.93
C      23.87      -8.53      25.95
C      24.12      -8.88      27.28
C      23.25      -8.18      28.11
C      22.40      -7.39      27.33
C      21.49      -6.52      27.98
C      21.41      -6.49      29.40
C      22.30      -7.31      30.15
C      23.21      -8.16      29.51
C      25.11      -9.81      27.64
C       0.75     -10.41      26.62
C       0.55     -10.08      25.26
C      24.64      -9.15      24.92
C      21.60      -8.00      25.03
C      21.34      -7.03      24.05
C      22.22      -5.97      24.19
C      23.09      -6.23      25.26
C      22.29      -4.78      23.45
C      23.23      -3.81      23.81
C      24.10      -4.01      24.91
C      24.03      -5.24      25.63
C      20.84      -9.20      25.03
C      19.80      -9.40      24.08
C      19.57      -8.39      23.11
C      20.32      -7.20      23.09
C      22.74      -7.54      25.88
C      15.62       0.67      40.06
C      15.87       2.00      39.68
C      15.00       2.36      38.67
C      14.15       1.29      38.38
C      13.22       1.42      37.31
C      13.14       2.62      36.56
C      14.03       3.68      36.88
C      14.95       3.56      37.94
C      16.86       2.78      40.30
C      17.62       2.21      41.33
C      17.42       0.87      41.74
C      16.40       0.11      41.11
C      13.35      -0.39      40.08
C      13.08      -1.72      39.74
C      13.96      -2.14      38.75
C      14.83      -1.08      38.42
C      14.02      -3.37      38.09
C      14.95      -3.55      37.05
C      15.81      -2.50      36.67
C      15.76      -1.26      37.36
C      12.60       0.22      41.11
C      11.56      -0.50      41.77
C      11.32      -1.85      41.39
C      12.07      -2.46      40.37
C      14.49       0.12      39.25
C      22.28      21.45      14.17
C      22.73      22.78      13.94
C      23.34      23.15      12.70
C      23.52      22.20      11.66
C      23.06      20.88      11.91
C      22.47      20.52      13.12
C      23.62      25.40      13.51
C      22.99      25.04      14.74
C      24.13      26.75      13.21
C      22.75      25.94      15.88
C      21.67      21.05      15.37
C      24.15      22.45      10.43
C      13.61      27.35      20.04
C      14.09      26.53      18.99
C      14.87      25.37      19.25
C      15.16      24.98      20.59
C      14.68      25.82      21.63
C      13.92      26.97      21.36
C      15.04      24.96      16.89
C      14.25      26.11      16.62
C      15.60      24.08      15.84
C      13.85      26.60      15.29
C      12.65      28.34      19.85
C      15.91      23.85      20.96
C       5.24      29.81      11.86
C       5.75      29.32      13.09
C       6.57      30.13      13.93
C       6.88      31.47      13.57
C       6.37      31.94      12.33
C       5.57      31.14      11.50
C       6.75      28.30      15.49
C       5.93      27.50      14.66
C       7.34      27.85      16.77
C       5.51      26.11      14.93
C       4.26      29.15      11.13
C       7.65      32.36      14.33
C       9.70       4.75      31.48
C      10.17       3.43      31.70
C      10.78       3.06      32.94
C      10.93       4.00      34.00
C      10.46       5.31      33.75
C       9.87       5.68      32.53
C      11.09       0.82      32.11
C      10.47       1.18      30.89
C      11.63      -0.53      32.41
C      10.25       0.28      29.74
C       9.10       5.15      30.27
C      11.57       3.75      35.22
C       1.26      -1.27      25.74
C       1.75      -0.43      26.77
C       2.37       0.82      26.49
C       2.52       1.28      25.15
C       2.03       0.43      24.13
C       1.43      -0.81      24.41
C       2.70       1.19      28.84
C       2.07      -0.04      29.13
C       3.25       2.11      29.87
C       1.85      -0.61      30.48
C       0.65      -2.51      25.98
C       3.18       2.46      24.76
C      18.03      -3.16      33.84
C      18.49      -2.69      32.58
C      19.08      -3.57      31.62
C      19.22      -4.96      31.89
C      18.76      -5.42      33.15
C      18.19      -4.55      34.10
C      19.41      -1.72      30.12
C      18.80      -0.85      31.06
C      19.93      -1.30      28.80
C      18.59       0.61      30.87
C      17.44      -2.32      34.80
C      19.84      -5.90      31.05
C      24.38      14.36      22.17
C       0.46      14.59      22.90
C       1.18      13.51      23.49
C       0.74      12.17      23.35
C      24.65      11.95      22.64
C      23.93      13.02      22.05
C       2.75      15.08      24.44
C       2.03      16.15      23.86
C       3.97      15.23      25.27
C       2.37      17.59      23.99
C      23.64      15.44      21.67
C       1.28      11.15      24.13
C      16.15      38.13      21.97
C      17.36      38.64      21.42
C      17.80     -12.51      22.07
C      17.34     -11.95      23.29
C      16.12     -12.44      23.82
C      15.70      38.70      23.18
C      19.68      39.70      20.26
C      18.96      38.67      19.61
C      20.91      40.32      19.73
C      19.30      38.06      18.30
C      15.40      37.17      21.27
C      17.89     -10.76      23.79
C       7.62      26.07       1.66
C       8.83      25.33       1.48
C       9.56      25.39       0.26
C       9.11       0.10      44.37
C       7.90       0.82      44.54
C       7.18      26.86       0.57
C      11.14      23.78       1.12
C      10.41      23.72       2.34
C      12.36      23.00       0.84
C      10.75      22.87       3.51
C       6.87      25.93       2.83
C       9.65      -0.05      43.09
C      11.82      11.82      23.42
C      13.01      11.60      22.67
C      13.74      12.69      22.11
C      13.30      14.03      22.28
C      12.10      14.23      23.01
C      11.38      13.16      23.57
C      15.29      11.14      21.11
C      14.57      10.05      21.67
C      16.50      10.99      20.27
C      14.90       8.62      21.50
C      11.08      10.72      23.90
C      13.84      15.07      21.52
C       3.30     -11.76      23.58
C       4.49     -12.31      24.14
C       5.20     -13.35      23.48
C       5.05      38.32      22.24
C       3.86      38.86      21.70
C       2.86     -12.29      22.35
C       6.76     -13.45      25.32
C       6.05     -12.42      25.98
C       7.96     -14.12      25.86
C       6.38     -11.85      27.31
C       2.57     -10.79      24.29
C       5.58      37.14      21.71
C      20.17       0.28      44.05
C      21.37       1.02      44.24
C      22.09      27.07       0.28
C      21.63      26.28       1.36
C      20.42      25.56       1.18
C      19.71      -0.49      45.14
C      23.68       2.58      44.61
C      22.97       2.63      43.38
C      24.90       3.36      44.90
C      23.32       3.46      42.21
C      19.44       0.41      42.86
C      22.16      26.42       2.64
N      20.82      20.09      15.38
N      22.35      15.52      21.72
N      16.58      23.06      20.18
N      15.11      15.26      21.39
N      12.80      29.52      20.35
N      14.11      37.17      21.18
N       8.32      32.09      15.41
N       6.85      36.92      21.60
N       4.37      28.97       9.86
N       5.58      25.87       2.87
N      24.95      23.44      10.18
N      23.43      26.42       2.89
N       8.25       6.12      30.26
N       9.78      10.66      23.89
N       3.96       3.17      25.50
N       2.55      10.95      24.26
N      24.91      -2.99      25.15
N       1.27     -10.77      24.36
N      20.64      -5.62      30.07
N      19.16     -10.57      23.91
N      16.61      -2.80      35.65
N      18.14       0.45      42.80
N      12.36       2.76      35.48
N      10.92      -0.05      42.86
N      23.75      24.44      12.57
N      22.59      23.75      14.88
N      15.30      24.65      18.19
N      13.81      26.83      17.69
N       7.02      29.57      15.08
N       5.47      28.05      13.50
N      11.21       1.78      33.07
N      10.05       2.47      30.75
N       2.81       1.56      27.54
N       1.63      -0.78      28.08
N      19.51      -3.03      30.45
N      18.38      -1.38      32.23
N       2.28      13.82      24.23
N       0.93      15.84      23.13
N      18.91     -12.03      21.45
N      17.84      38.20      20.22
N      10.66      24.60       0.15
N       9.30      24.49       2.45
N      14.83      12.39      21.36
N      13.47      10.35      22.41
N       6.29     -13.86      24.11
N       4.95     -11.91      25.36
N      23.19      27.85       0.39
N      21.86       1.85      43.27
