25

C      11.14       3.93       6.04
C       6.62       1.76       6.02
C       9.92       0.79       2.36
C       7.96       1.93       5.42
C      10.50       2.30       4.26
C      10.15       3.00       5.42
C       6.07       0.49       6.29
C       8.34       1.20       4.28
C       8.87       2.85       5.97
C       9.59       1.42       3.68
C       4.10       1.59       7.13
C       5.84       2.88       6.32
C       4.80       0.41       6.87
N       4.60       2.80       6.84
H      11.47       2.45       3.81
H       6.64      -0.40       6.07
H       7.65       0.50       3.81
H       8.61       3.42       6.86
H       3.11       1.58       7.58
H       6.20       3.89       6.10
H       4.37      -0.56       7.14
O      10.70       5.04       6.46
O      12.34       3.51       6.07
O       9.21      -0.19       1.97
O      10.89       1.32       1.73
