40

H       2.45       0.31       8.06
C      12.25      -0.86      15.52
C       4.42       2.33      11.77
O      12.51       1.35      11.79
O      10.82       2.50      12.69
O      11.77      -2.53      17.69
O       9.67      -2.97      17.02
O       3.54       2.22      12.67
O       5.30       3.25      11.76
O       3.25      -1.70       6.85
O       5.44      -2.10       7.09
H       8.91      -1.43      15.21
C      11.58       1.49      12.65
C      11.37       0.42      13.67
H       6.39      -1.01       9.08
C      10.06      -0.11      13.91
C       9.88      -0.97      15.02
H       2.46       1.90      10.01
C      10.96      -1.36      15.80
H      10.11       0.08      11.18
C       4.40      -1.47       7.39
H       5.56       0.64      13.14
C      12.45       0.03      14.47
C       4.43       1.33      10.66
C       4.44      -0.42       8.46
C       5.58       0.51      10.40
H       8.18       0.29       9.70
C       5.56      -0.34       9.27
C       3.31       0.40       8.72
H       7.48       0.32      14.62
C       8.94       0.14      13.02
C       9.12       0.18      11.61
C       8.03       0.29      10.77
C       6.72       0.45      11.30
C       6.55       0.50      12.71
C       7.63       0.30      13.55
C       3.32       1.27       9.80
H      13.08      -1.19      16.15
C      10.76      -2.36      16.91
H      13.43       0.45      14.26
