40

C       8.24       4.46      16.91
C       9.12       4.47      17.98
C       8.01      -1.13      21.26
C       8.06      -1.32      19.85
C       8.17      -0.24      19.00
C       8.33       1.08      19.52
C       8.37       1.25      20.93
C       8.17       0.18      21.77
O       9.20      -4.67      20.02
O      10.37      -3.04      21.00
O       5.22      -3.93      25.86
O       4.98      -1.76      25.33
O      10.09       4.25      20.86
O      11.11       2.50      19.93
O       6.10       4.51      15.09
O       5.71       2.31      15.33
H       6.45      -1.07      23.44
H       6.64      -5.23      24.41
H       8.27      -5.62      22.53
H       6.84       1.38      17.32
H       8.14       5.31      16.24
H       9.76       5.33      18.17
H       7.96      -2.32      19.42
H       8.17      -0.40      17.92
H       8.52       2.24      21.35
H       8.19       0.34      22.85
C       9.34      -3.78      20.91
C       5.50      -2.90      25.15
C       8.27      -3.56      21.92
C       7.75      -2.24      22.15
C       6.89      -2.05      23.25
C       6.49      -3.12      24.05
C       6.98      -4.41      23.78
C       7.87      -4.63      22.73
C      10.20       3.37      19.95
C       6.34       3.36      15.62
C       9.20       3.37      18.85
C       8.38       2.21      18.61
C       7.52       2.22      17.49
C       7.41       3.33      16.67
