40

O       6.43       4.67       3.53
O       5.27       3.04       4.52
O      10.35       3.93       9.44
O      10.74       1.82       8.78
O       5.54      -4.19       4.45
O       4.46      -2.51       3.45
O       9.44      -4.59      -1.39
O       9.97      -2.44      -1.07
H       9.21       1.09       6.96
H       9.01       5.26       7.91
H       7.37       5.63       6.03
H       8.79      -1.43       0.84
H       7.48      -5.38      -0.15
H       5.84      -5.34       1.77
H       7.69       2.31       2.94
H       7.46       0.38       1.45
H       7.13      -2.24       4.89
H       7.47      -0.33       6.38
C       6.30       3.77       4.42
C      10.16       2.92       8.66
C       7.38       3.57       5.43
C       7.90       2.25       5.67
C       8.76       2.06       6.77
C       9.16       3.14       7.56
C       8.67       4.44       7.28
C       7.78       4.64       6.23
C       5.40      -3.35       3.50
C       9.27      -3.45      -0.82
C       6.41      -3.36       2.40
C       7.25      -2.22       2.15
C       8.11      -2.26       1.04
C       8.21      -3.39       0.24
C       7.38      -4.50       0.49
C       6.49      -4.48       1.56
C       7.64       1.13       4.78
C       7.60       1.32       3.37
C       7.48       0.23       2.53
C       7.31      -1.08       3.05
C       7.27      -1.25       4.46
C       7.48      -0.18       5.30
