40

C      14.15       4.05      20.24
C      17.90       4.90      15.90
C      15.21       4.27      19.22
C      15.73       5.58      18.97
C      16.57       5.76      17.84
C      16.94       4.69      17.04
C      16.46       3.39      17.33
C      15.59       3.19      18.41
C      13.31      11.21      21.12
O      14.29       3.11      21.08
C      14.30      11.21      22.23
C      15.13      10.06      22.49
H      17.01       6.74      17.63
H      16.77       2.57      16.70
H      15.19       2.21      18.63
C      15.96      10.07      23.64
C      15.50       6.70      19.86
C      15.47       6.52      21.27
H      15.57       5.52      21.70
C      15.36       7.61      22.12
C      15.15       9.09      20.18
C      15.34       8.01      19.34
H      15.32       8.17      18.27
H      15.35       7.45      23.19
C      15.19       8.92      21.59
H      13.71      13.17      22.89
O      13.13       4.80      20.20
O      18.19       3.85      15.22
C      17.07      11.26      25.53
H      15.00      10.08      19.75
O      18.39       6.03      15.68
O      13.42      12.10      20.21
O      12.40      10.34      21.13
O      17.35      12.43      25.98
C      16.03      11.19      24.45
O      17.66      10.21      25.91
C      15.20      12.31      24.19
H      16.63       9.24      23.84
C      14.35      12.31      23.10
H      15.28      13.18      24.85
