207

C      14.84       0.77      35.71
C      23.04      13.33      24.49
C       9.88       9.23      30.21
C      14.87       0.51      37.07
C       7.93      12.44      38.81
C      22.87      12.95      10.51
C       9.30      10.77      43.17
C      13.71       3.31      33.58
C       7.56      12.63      21.78
C       8.19      13.36      41.09
C      14.72       2.48      34.09
C       9.53      11.67       2.86
C      14.88       1.32      39.31
C      15.44       0.11      39.78
C       0.71       0.24       6.49
C      10.20      12.72       3.52
C      11.42      13.19       3.00
C      11.98      12.60       1.86
C      11.39      11.45       1.24
C      10.11      11.07       1.72
C      12.02      10.71       0.06
C      11.13      11.18      44.78
C      10.09      10.36      44.26
C       9.45      12.05      42.62
C      10.40      12.93      43.19
C      11.20      12.51      44.27
C      13.53      11.04      45.72
C      12.07       9.18       0.23
C      12.36       8.39      44.97
C      12.27       6.99      45.04
C      11.94       6.32       0.39
C      11.82       7.10       1.55
C      11.89       8.51       1.47
C      14.42      10.88       0.95
C      15.81      11.05       0.79
C      16.37      11.36      45.38
C      15.50      11.41      44.27
C      14.11      11.26      44.44
C      21.34      11.52      18.81
C      21.13      10.22      18.30
C      20.34      10.03      17.15
C      19.64      11.10      16.53
C      19.95      12.41      17.01
C      20.75      12.61      18.14
C      18.68      10.93      15.35
C      19.52      11.50      14.21
C      19.32      12.80      13.68
C      20.07      13.29      12.59
C      21.11      12.51      12.05
C      21.40      11.25      12.62
C      20.63      10.77      13.69
C      18.20       9.49      15.15
C      17.34      11.66      15.52
C      16.48      11.82      14.40
C      15.31      12.60      14.47
C      14.92      13.19      15.68
C      15.66      12.91      16.84
C      16.84      12.14      16.76
C      17.63       8.76      16.24
C      17.09       7.48      16.08
C      17.05       6.87      14.81
C      17.53       7.60      13.70
C      18.10       8.87      13.87
C      13.94       4.09      32.43
C      15.22       4.16      31.82
C      16.19       3.24      32.29
C      15.96       2.44      33.42
C      15.55       5.08      30.64
C      15.62       4.07      29.49
C      16.84       3.58      28.96
C      16.89       2.69      27.88
C      15.70       2.18      27.33
C      14.46       2.56      27.90
C      14.43       3.47      28.98
C      14.54       6.21      30.44
C      16.85       5.87      30.81
C      17.42       6.53      29.68
C      18.68       7.16      29.75
C      19.39       7.20      30.96
C      18.77       6.70      32.13
C      17.52       6.06      32.05
C      14.20       7.07      31.52
C      13.36       8.18      31.37
C      12.85       8.51      30.10
C      13.23       7.74      28.99
C      14.05       6.61      29.16
C      14.51       0.29       8.23
C       9.10      13.18       8.73
C       7.78      13.30       9.20
C       0.95       0.13       5.14
C       0.71       0.65      23.52
C      22.27      12.24      24.02
C       7.35      12.47      20.43
C      15.19       0.43      25.80
C       9.83       1.03      44.81
C      10.78       3.01      45.73
C      11.68       0.86       0.45
C      10.76       0.22      45.49
C      10.83       4.38      45.72
C      18.60      12.20      45.25
C       3.67       4.35      14.25
C       4.91       2.54      15.17
C       2.62       2.80      15.74
C       2.50       3.95      14.93
C       6.08       1.81      15.16
C      16.67       4.51      14.68
C       9.65       8.02      29.52
C       7.46       7.85      30.44
C       8.83       9.70      31.03
C       6.24       7.21      30.44
C      10.99      10.03      29.97
H       9.90       9.44      44.64
H       8.67      11.28       3.23
H      15.19       0.09      35.08
H       7.76      13.12      19.80
H      13.16       4.65      32.09
H      13.52       3.74      29.35
H       8.35      11.54      39.06
H      14.73       2.12      39.93
H      15.83       0.80      41.69
H      12.41       6.43      44.18
H      12.55       8.81      44.06
H      11.63       6.66       2.45
H      11.79       9.03       2.34
H      14.08      10.63       1.88
H      16.43      10.92       1.59
H      15.88      11.52      43.33
H      13.54      11.25      43.60
H      11.89      13.16      44.64
H       2.85       0.51      42.79
H       8.61      10.12      42.78
H       9.62      10.28       1.30
H      12.85      12.99       1.51
H       4.21       0.60       3.48
H      14.76      12.76      13.61
H      16.75      11.46      13.48
H      15.37      13.30      17.75
H      17.35      11.97      17.63
H      17.59       9.19      17.17
H      16.66       7.01      16.89
H      17.43       7.21      12.76
H      18.38       9.38      13.03
H      20.85       9.85      14.07
H       6.71      10.66      12.22
H      12.14       0.86      12.20
H      10.91       0.08      14.06
H      19.51      13.23      16.58
H      20.24       9.07      16.80
H       6.12       9.41      18.77
H      13.15       0.21      18.52
H      19.09       7.55      28.90
H      16.97       6.48      28.77
H      19.25       6.75      33.03
H      17.11       5.71      32.92
H      14.58       6.89      32.45
H      13.16       8.78      32.17
H      12.95       8.02      28.04
H      14.35       6.12      28.31
H      13.58       2.23      27.50
H       2.38       2.42      27.48
H       2.33       3.88      29.35
H      17.12       3.20      31.87
H      12.80       3.37      34.06
H       1.32       1.88      33.80
H      13.52       0.38       8.48
H       9.87      12.91       9.36
H       0.18       0.17       4.51
H       8.18      12.62      11.12
H       1.29       1.46      23.77
H      21.65      11.72      24.65
H      22.26      13.32      26.41
H       9.17       0.62      44.15
H      12.41       0.35       0.95
H      10.15       4.88      45.19
H      19.52      11.86      45.09
H       3.66       5.14      13.59
H       1.81       2.42      16.23
H       6.85       2.15      14.64
H      15.92       3.89      14.52
H      10.33       7.64      28.87
H       8.91      10.59      31.53
H       6.15       6.37      29.90
H      10.83      10.99      29.81
N      14.84       0.40       6.93
N      14.59       1.96      35.30
N       8.83      12.32      41.49
N      21.85      11.66      20.02
N      21.65      12.92      10.91
N       7.67      12.68      37.50
N      14.64       1.49      37.98
N      11.76       5.00       0.44
N      17.68      11.31      45.21
N       9.81      13.10       4.73
N       6.16       0.65      15.73
N      16.36       5.76      14.63
N       5.20       7.70      31.01
N      12.23       9.67      29.92
N      15.78       1.50      26.20
N       9.37      13.30       7.41
N       0.63       0.31      22.22
N      22.23      11.95      22.70
N       9.87       2.38      44.93
N      11.67       2.22       0.53
N       4.82       3.64      14.38
N       3.80       2.13      15.83
N       8.46       7.38      29.65
N       7.66       9.02      31.11
