20

H       6.15       5.43       2.63
H       6.13       2.95       2.41
H       4.73       2.78       6.51
H       4.81       5.27       6.54
H       3.79      -1.52       5.81
H       3.69       0.97       5.75
H       7.02       0.88       3.00
H       6.89      -1.62       3.08
C       5.86       4.79       3.46
C       5.85       3.40       3.36
C       5.42       2.63       4.45
C       5.04       3.32       5.62
C       5.09       4.71       5.65
C       4.48      -0.94       5.21
C       4.45       0.45       5.18
C       5.38       1.15       4.41
C       6.28       0.39       3.63
C       6.23      -1.00       3.70
N       5.48       5.44       4.59
N       5.38      -1.66       4.51
