26

H      12.56       8.25       8.78
H      10.44      11.65      10.27
H      12.21       9.03       6.45
H      10.13      12.50       7.96
H      12.58      10.13       4.80
H       9.29      12.61       6.07
C      11.72       9.36      11.05
C      11.52       9.89       9.67
C      12.03       9.17       8.58
C      10.83      11.09       9.43
C      11.84       9.63       7.28
C      10.66      11.56       8.12
C      11.16      10.84       7.02
C      10.95      11.29       5.63
C      11.75      10.79       4.58
C       9.93      12.21       5.29
C      11.50      11.15       3.26
C       9.71      12.60       3.97
C      10.48      12.05       2.94
C      10.23      12.37       1.50
O      11.21       9.96      12.05
O      12.41       8.29      11.17
O       9.39      13.28       1.19
O      10.85      11.70       0.61
H      12.09      10.74       2.45
H       8.94      13.33       3.75
