44

C       5.44       7.04      16.12
C       3.84       8.66      16.54
C       6.47       7.98      16.16
O      12.48      14.90      13.87
C       4.80       9.67      16.58
C       6.13       9.32      16.37
C       7.27      11.18      17.47
C       7.89      10.46      15.13
O       6.62      10.95      18.49
C       8.25      12.28      17.36
C       8.90      11.54      15.09
C       9.06      12.41      16.20
C       8.43      13.15      18.43
C       9.70      11.68      13.97
C       9.43      14.13      18.40
C      10.67      12.70      13.91
C      10.86      13.56      14.99
C      10.06      13.42      16.16
C      10.26      14.26      17.28
C      11.87      14.64      14.91
C      11.35      15.25      17.30
C      13.18      16.34      16.07
C      14.46      15.95      15.68
C      12.95      17.67      16.44
H       5.65       5.98      15.94
H       2.78       8.88      16.69
H       7.50       7.68      16.01
H       4.52      10.71      16.74
H       9.61      10.98      13.14
H       7.78      13.04      19.30
H      11.29      12.81      13.02
H       9.60      14.80      19.24
H      14.68      14.92      15.43
C      15.46      16.92      15.63
H      11.96      18.01      16.74
C      14.02      18.57      16.38
H      16.47      16.67      15.32
H      13.90      19.61      16.66
O       7.69       9.69      14.19
O      11.62      15.92      18.29
N       4.15       7.38      16.29
N       7.14      10.34      16.33
N      12.11      15.38      16.09
N      15.25      18.20      15.97
