9

O       2.99       1.40      18.89
O       5.14       4.52      20.28
O       2.88       4.49      18.58
Zn       3.80       3.14      19.75
C       6.24       4.71      20.89
C       2.20       2.17      22.31
C       1.65       4.76      18.73
C       4.15       0.96      18.58
O       3.06       2.84      21.65
