9

O      -0.25       5.63       7.32
Zn       1.09       7.02       7.85
C      -1.35       5.44       6.72
O       1.90       8.76       8.71
C       0.74       9.19       9.02
C       2.69       7.99       5.30
O       1.83       7.32       5.96
O       2.01       5.66       9.03
C       3.24       5.39       8.87
