14

C       4.68      14.99       9.39
C       5.17      17.27       9.54
H       5.04      14.07       9.52
C       3.49      15.19      10.28
H       4.41      15.08       8.44
H       4.90      17.41       8.60
H       5.87      17.93       9.77
C       3.98      17.47      10.43
H       3.76      15.05      11.22
O       5.70      15.95       9.69
H       3.63      18.38      10.30
H       4.26      17.38      11.37
O       2.96      16.51      10.13
H       2.80      14.52      10.05
