14

C       6.10       9.15       0.37
C       7.28       9.36      -0.52
C       7.77       7.08      -0.37
O       5.56       7.84       0.22
H       7.64      10.27      -0.39
H       7.01       9.26      -1.46
H       7.51       6.93      -1.31
H       8.47       6.41      -0.14
H       6.23       5.96       0.39
H       6.86       6.96       1.46
H       6.36       9.30       1.31
H       5.40       9.82       0.14
O       8.30       8.39      -0.22
C       6.59       6.87       0.52
