30

K      -0.82      10.76      14.40
K      -5.11       7.09      16.52
S       2.39      10.39      14.88
Sm       1.85       7.67      12.48
Sm      -2.45       6.97      12.89
S       0.94      10.50      10.64
S      -1.90       7.69      16.44
S      -3.35       3.96      14.41
O      -4.49       8.56      12.96
O      -2.46       9.41      12.89
O       1.55       9.43      14.05
O       1.51      11.30      15.62
O       3.41       9.69      15.67
O      -2.37       7.51      10.46
O      -0.36       7.65      11.38
O      -0.09      10.64      11.67
O       1.97       9.43      10.99
O      -0.19       6.94      13.90
O       1.84       6.46      14.60
O      -2.74       7.45      15.20
O      -2.79       7.87      17.60
O      -0.89       8.72      16.23
O       1.92       5.30      11.73
O      -4.66       6.03      12.32
O      -4.38       4.78      15.05
O      -2.32       4.80      13.66
C      -3.72       9.59      12.94
C      -1.17       7.92      10.41
C       0.58       6.41      14.77
C      -5.46       5.05      12.07
