11

Zn      11.70      15.76      10.35
N       9.96      16.31       9.42
C      10.73      13.01      10.57
N      10.92      14.10      11.36
C      10.50      14.02      12.64
C      13.15      14.39       8.43
O      13.36      14.99       9.57
O      12.40      17.06      11.78
C      12.71      18.02      10.97
C       8.84      16.49      10.15
C       9.94      16.66       8.11
