11

Zn       6.05       9.22       2.19
C       4.79       7.53      -0.09
N       4.31       9.80       3.10
N       5.24       7.58       1.18
O       7.68       8.46       2.99
O       6.70      10.56       0.76
C       7.49       7.84       4.12
C       3.19       9.99       2.37
C       4.29      10.14       4.41
C       7.03      11.51       1.57
C       5.05       6.49       1.97
