28

H       5.26       2.00       4.41
H       5.27       3.44       3.13
H       5.36       3.56       6.19
H       5.61       4.99       4.99
H      10.32       5.29       2.15
H      11.17       6.57       3.07
H       9.38       6.48       3.17
H      10.90       0.32       3.92
H       9.14       0.53       3.91
H      10.13       1.36       5.17
C       8.34       5.59       6.18
C       7.23       3.64       5.12
C       8.31       4.50       5.17
C       9.37       4.19       4.29
C       9.25       3.07       3.41
C       7.99       2.63       3.03
C       7.06       2.79       4.04
C       5.63       2.97       4.07
C       5.80       3.93       5.23
C       7.86       1.68       1.87
C      10.31       5.87       3.10
C      10.09       1.06       4.10
O       7.20       6.07       6.63
O       9.52       5.91       6.64
O       8.99       1.22       1.39
O       6.67       1.38       1.38
O      10.46       5.03       4.22
O      10.30       2.19       3.25
