12

H       2.80       4.40      15.67
H       1.82       4.36      13.49
H       2.02       6.05      13.91
O       5.47       6.04      15.16
O       3.51       6.73      16.12
O       4.58       5.50      12.30
O       2.55       5.42      11.31
N       4.41       3.68      14.45
C       4.21       5.95      15.42
C       3.46       4.74      14.85
C       2.57       5.14      13.66
C       3.29       5.37      12.32
