12

C       8.82       6.03      17.46
C      10.22       5.41      17.63
C      11.27       6.32      16.97
C      11.36       7.75      17.47
H      11.09       6.37      15.88
N      10.47       5.21      19.06
O       8.28       6.45      18.54
O       8.31       6.10      16.31
O      12.07       8.54      16.80
O      10.71       8.08      18.54
H      12.28       5.88      17.09
H      10.22       4.45      17.08
