12

C       7.11       6.29       3.21
C       6.37       5.73       4.43
C       5.49       4.53       4.05
C       6.22       3.19       3.80
N       7.34       5.33       5.48
O       6.41       6.98       2.42
H       4.75       4.34       4.84
H       4.91       4.77       3.14
O       8.37       6.03       3.11
H       5.71       6.54       4.77
O       7.50       3.18       3.65
O       5.49       2.17       3.75
