80

Cd       7.59       9.54       3.79
Cd       3.83       9.55      10.84
Cd       0.02       3.20      10.30
Cd       3.78       3.19       3.25
Cu       3.80       0.01       7.04
Cu       3.81       6.37       7.04
Cu       0.01      12.73       0.00
Cu       0.00       6.37       0.00
H       4.77      11.38       3.10
H       4.35       7.93       4.05
H       0.54       4.81       2.99
H       6.65      11.39      10.15
H       0.55      11.19      11.08
H       7.06       1.56       3.01
H       6.65       4.99       3.93
H       2.85       7.74       3.11
H       3.26       4.81      10.04
H       7.07       7.93      11.10
H       2.84       1.36      10.99
H       4.76       5.01      10.98
H       0.96       7.75      10.15
H       4.34       1.56      10.06
H       3.27      11.18       4.03
H       0.96       1.35       3.94
C       7.12       5.23       2.98
C       2.61       8.23       5.20
C       6.42      10.89      12.24
C       7.13      11.62      11.10
C       6.41       4.50       1.84
C       3.48       6.01       4.20
C       0.49       7.52      11.11
C       5.00      10.88       5.19
C       4.29      11.61       4.06
C       3.32       1.13      10.03
C       0.33      12.36       2.84
C       0.35       6.02      11.25
C       1.19       1.86       1.85
C       7.28       0.38      11.25
C       3.49      12.37       9.89
C       4.12       0.37       4.20
C       2.61       1.87       8.90
C       5.00       4.51       8.89
C       0.48       1.13       2.98
C       4.28       5.24      10.02
C       1.20       8.24      12.25
C       7.26       6.72       2.84
C       4.13       6.73       9.89
C       3.33       7.51       4.07
O       3.87      11.83       8.79
O       2.72       1.48       7.69
O       7.55      11.82       1.75
O       7.61       7.28       1.74
O       3.86       5.46       5.29
O       3.75       7.28       8.80
O       0.01       5.47      12.34
O       3.27      11.68      10.94
O       7.07       7.41       3.90
O       4.83       4.86       7.68
O       1.89       9.26      11.94
O       1.92       9.25       4.90
O       1.08       1.47       0.64
O       1.97       2.91       9.20
O       4.34       1.07       3.15
O       2.78       7.88       6.41
O       5.72       3.49       2.14
O       5.64       9.83       4.89
O       3.74       0.91       5.30
O       0.06       0.92      12.34
O       4.89      11.27       6.40
O       5.69       3.50       9.19
O       7.07       1.08      10.20
O       6.53      11.28      13.44
O       0.54      11.67       3.89
O       5.77       9.84      11.94
O       1.84       2.91       2.15
O       4.35       7.42      10.94
O       6.58       4.85       0.63
O       0.55       5.34      10.19
O       1.03       7.89      13.46
O       3.26       5.33       3.15
