46

V       2.35       7.78       0.22
V       1.95       5.20       1.50
V       7.59       3.44      -0.22
V       0.07       6.03      -1.50
Co       4.97       5.61       0.00
Co       2.01      11.23       0.00
H       4.92       7.07      -2.55
H       4.23       6.61      -4.87
H       2.48       2.92      -3.44
H       3.36       3.49      -1.18
H       2.20       3.41      -5.71
H       5.03       4.16       2.55
H       5.71       4.61       4.88
H       7.46       8.30       3.44
H       6.58       7.74       1.18
H       7.73       7.82       5.72
C       0.78      10.77       2.54
C       2.16      12.63       2.53
C       4.42       6.14      -2.80
C       4.01       5.88      -4.10
C       3.32       4.68      -4.39
C       3.05       3.83      -3.29
C       3.54       4.14      -2.03
C       2.84       4.29      -5.69
C       3.25      11.68      -2.54
C       1.86       9.82      -2.53
C       5.52       5.09       2.80
C       5.93       5.35       4.10
C       6.62       6.55       4.39
C       6.89       7.39       3.29
C       6.40       7.09       2.03
C       7.10       6.93       5.69
N       1.68      11.54       1.87
N       4.20       5.29      -1.77
N       2.35      10.91      -1.87
N       5.75       5.94       1.77
O       3.40       4.74       0.85
O       3.96       7.51       0.08
O       1.52       7.05      -1.21
O       2.00       9.46       0.32
O       1.76       6.98       1.73
O       6.54       6.49      -0.85
O       5.98       3.72      -0.08
O       0.50       4.17       1.21
O       2.02      12.99      -0.32
O       0.25       4.24      -1.73
