1008

H      12.57      13.73       2.36
H      10.13      16.62       0.68
H      16.63      10.13      39.78
H      13.73      12.58      38.09
H      14.05      15.42      38.17
H      15.41      14.05       2.29
H      27.88      26.72       2.37
H      30.33      23.83       0.68
H      23.84      30.33      39.78
H      26.73      27.88      38.10
H      26.41      25.04      38.17
H      25.04      26.40       2.29
H      27.88      13.73      38.09
H      30.33      16.63      39.78
H      23.84      10.13       0.68
H      26.73      12.57       2.36
H      26.41      15.41       2.29
H      25.05      14.05      38.17
H      12.57      26.73      38.10
H      10.13      23.84      39.78
H      16.62      30.33       0.68
H      13.73      27.89       2.37
H      14.05      25.05       2.29
H      15.41      26.41      38.17
H       2.36      12.57      13.73
H       0.68      10.13      16.62
H      39.78      16.62      10.13
H      38.09      13.73      12.58
H      38.17      14.05      15.42
H       2.29      15.41      14.05
H       2.36      27.88      26.73
H       0.68      30.33      23.83
H      39.78      23.83      30.33
H      38.09      26.73      27.88
H      38.17      26.41      25.04
H       2.29      25.05      26.41
H      38.09      27.89      13.73
H      39.78      30.33      16.62
H       0.68      23.84      10.13
H       2.36      26.73      12.57
H       2.29      26.41      15.41
H      38.17      25.05      14.05
H      38.10      12.57      26.73
H      39.78      10.13      23.84
H       0.68      16.62      30.33
H       2.37      13.73      27.89
H       2.29      14.05      25.05
H      38.17      15.41      26.41
H      13.73       2.36      12.57
H      16.62       0.68      10.13
H      10.13      39.77      16.63
H      12.58      38.09      13.73
H      15.42      38.17      14.05
H      14.05       2.29      15.41
H      26.72       2.36      27.88
H      23.83       0.68      30.33
H      30.33      39.78      23.84
H      27.88      38.10      26.73
H      25.04      38.17      26.41
H      26.40       2.29      25.04
H      13.73      38.09      27.89
H      16.62      39.78      30.33
H      10.13       0.68      23.84
H      12.57       2.36      26.73
H      15.41       2.29      26.41
H      14.05      38.17      25.05
H      26.73      38.10      12.57
H      23.84      39.78      10.13
H      30.33       0.68      16.62
H      27.89       2.37      13.73
H      25.05       2.29      14.05
H      26.41      38.17      15.41
H      32.04      33.32      22.32
H      29.99      36.51      20.61
H      36.51      29.99      19.85
H      33.32      32.04      18.13
H      32.27      34.04      17.28
H      34.04      32.27      23.18
H       8.41       7.13      22.32
H      10.46       3.94      20.61
H       3.94      10.46      19.85
H       7.14       8.41      18.14
H       8.19       6.42      17.28
H       6.42       8.19      23.18
H       8.42      33.32      18.13
H      10.47      36.51      19.85
H       3.94      29.99      20.61
H       7.14      32.04      22.32
H       8.19      34.04      23.18
H       6.42      32.27      17.28
H      32.05       7.14      18.14
H      29.99       3.95      19.85
H      36.52      10.46      20.61
H      33.32       8.42      22.33
H      32.27       6.42      23.18
H      34.04       8.19      17.28
H      22.32      32.04      33.32
H      20.61      29.99      36.51
H      19.85      36.51      29.99
H      18.13      33.32      32.05
H      17.28      32.27      34.04
H      23.18      34.04      32.27
H      22.32       8.41       7.13
H      20.61      10.46       3.94
H      19.85       3.94      10.46
H      18.14       7.14       8.42
H      17.28       8.19       6.42
H      23.18       6.42       8.19
H      18.13       8.42      33.32
H      19.85      10.47      36.51
H      20.60       3.95      29.99
H      22.32       7.14      32.04
H      23.18       8.19      34.04
H      17.28       6.42      32.27
H      18.14      32.05       7.14
H      19.85      29.99       3.95
H      20.61      36.52      10.46
H      22.33      33.32       8.42
H      23.18      32.27       6.42
H      17.28      34.04       8.19
H      33.32      22.32      32.04
H      36.51      20.61      29.99
H      29.99      19.85      36.51
H      32.04      18.13      33.32
H      34.04      17.28      32.27
H      32.27      23.18      34.04
H       7.13      22.33       8.41
H       3.94      20.61      10.46
H      10.46      19.85       3.94
H       8.41      18.14       7.14
H       6.42      17.28       8.19
H       8.19      23.18       6.42
H      33.32      18.13       8.42
H      36.51      19.85      10.47
H      29.99      20.60       3.95
H      32.04      22.32       7.14
H      34.04      23.18       8.19
H      32.27      17.28       6.42
H       7.14      18.14      32.04
H       3.95      19.85      30.00
H      10.46      20.61      36.52
H       8.42      22.33      33.32
H       6.42      23.18      32.27
H       8.19      17.28      34.04
H      17.75      11.94      35.15
H      17.70       7.12      35.78
H      16.07       7.01      36.43
H      17.44       7.30      37.51
H      22.70      28.52      35.16
H      22.76      33.34      35.77
H      24.39      33.45      36.42
H      23.02      33.17      37.51
H      22.71      11.93       5.31
H      22.75       7.11       4.68
H      24.38       7.00       4.03
H      23.01       7.29       2.94
H      17.76      28.53       5.31
H      17.70      33.35       4.68
H      16.07      33.46       4.03
H      17.44      33.17       2.95
H      35.15      17.75      11.93
H      35.77      17.70       7.12
H      36.42      16.07       7.01
H      37.51      17.44       7.29
H      35.15      22.71      28.52
H      35.78      22.75      33.34
H      36.43      24.38      33.46
H      37.51      23.01      33.16
H       5.30      22.70      11.93
H       4.69      22.76       7.11
H       4.05      24.40       7.00
H       2.96      23.03       7.28
H       5.31      17.76      28.53
H       4.69      17.70      33.35
H       4.05      16.07      33.46
H       2.95      17.44      33.17
H      11.93      35.14      17.75
H       7.12      35.77      17.70
H       7.00      36.43      16.07
H       7.30      37.51      17.44
H      28.52      35.16      22.70
H      33.34      35.77      22.76
H      33.45      36.42      24.39
H      33.17      37.50      23.02
H      11.93       5.31      22.71
H       7.12       4.68      22.75
H       7.00       4.03      24.38
H       7.29       2.94      23.01
H      28.53       5.31      17.76
H      33.35       4.68      17.70
H      33.46       4.03      16.07
H      33.17       2.95      17.44
H      11.93      17.75       5.31
H       7.11      17.70       4.69
H       7.00      16.07       4.04
H       7.29      17.44       2.95
H      28.52      22.70       5.31
H      33.34      22.75       4.68
H      33.46      24.38       4.04
H      33.16      23.01       2.95
H      11.93      22.70      35.16
H       7.11      22.77      35.77
H       7.00      24.40      36.41
H       7.28      23.03      37.50
H      28.52      17.75      35.14
H      33.34      17.71      35.78
H      33.45      16.08      36.43
H      33.16      17.45      37.51
H      17.75      35.15      28.53
H      17.70      35.77      33.34
H      16.07      36.42      33.46
H      17.44      37.51      33.17
H      22.70      35.16      11.93
H      22.77      35.77       7.11
H      24.40      36.41       7.00
H      23.03      37.50       7.28
H      22.71       5.31      28.52
H      22.75       4.68      33.34
H      24.38       4.03      33.46
H      23.00       2.95      33.16
H      17.76       5.31      11.93
H      17.70       4.69       7.11
H      16.07       4.04       7.00
H      17.44       2.95       7.29
H      35.15      11.93      22.71
H      35.77       7.12      22.76
H      36.42       7.00      24.39
H      37.51       7.29      23.02
H      35.15      28.53      17.75
H      35.77      33.35      17.70
H      36.42      33.46      16.07
H      37.51      33.17      17.44
H       5.30      11.93      17.76
H       4.69       7.11      17.69
H       4.05       7.00      16.06
H       2.96       7.28      17.43
H       5.31      28.52      22.71
H       4.69      33.34      22.75
H       4.04      33.45      24.38
H       2.95      33.17      23.01
H      22.43      28.80       5.04
H      21.64      33.31       3.46
H      23.23      33.53       2.73
H      21.88      32.90       1.77
H      18.03      11.65       5.04
H      18.82       7.14       3.46
H      17.23       6.93       2.72
H      18.59       7.56       1.76
H      18.03      28.80      35.42
H      18.83      33.31      37.00
H      17.23      33.53      37.73
H      18.58      32.90      38.69
H      22.43      11.65      35.42
H      21.64       7.14      36.99
H      23.23       6.92      37.73
H      21.88       7.56      38.69
H       5.04      22.43      28.81
H       3.46      21.64      33.32
H       2.72      23.23      33.53
H       1.77      21.88      32.90
H       5.04      18.04      11.65
H       3.46      18.82       7.14
H       2.73      17.22       6.92
H       1.76      18.58       7.55
H      35.42      18.02      28.81
H      36.99      18.82      33.31
H      37.74      17.24      33.53
H      38.69      18.59      32.90
H      35.42      22.43      11.65
H      37.00      21.63       7.14
H      37.73      23.23       6.93
H      38.69      21.87       7.56
H      28.80       5.04      22.43
H      33.31       3.46      21.64
H      33.53       2.73      23.23
H      32.90       1.77      21.88
H      11.65       5.04      18.03
H       7.14       3.46      18.82
H       6.93       2.72      17.23
H       7.56       1.76      18.59
H      28.80      35.42      18.03
H      33.31      37.00      18.82
H      33.53      37.73      17.23
H      32.90      38.69      18.58
H      11.65      35.42      22.43
H       7.14      37.00      21.64
H       6.92      37.73      23.23
H       7.56      38.69      21.88
H      28.81      22.43      35.42
H      33.32      21.64      37.00
H      33.53      23.22      37.74
H      32.90      21.87      38.69
H      11.65      18.04      35.42
H       7.14      18.82      37.00
H       6.92      17.23      37.73
H       7.55      18.58      38.69
H      28.81      18.02       5.04
H      33.31      18.82       3.46
H      33.53      17.23       2.72
H      32.90      18.59       1.77
H      11.65      22.43       5.04
H       7.14      21.64       3.46
H       6.92      23.23       2.73
H       7.55      21.88       1.77
H      22.43       5.04      11.65
H      21.64       3.46       7.14
H      23.23       2.73       6.92
H      21.88       1.77       7.55
H      18.02       5.04      28.81
H      18.82       3.46      33.32
H      17.23       2.72      33.53
H      18.59       1.77      32.90
H      18.04      35.42      11.65
H      18.82      37.00       7.14
H      17.23      37.73       6.92
H      18.58      38.69       7.55
H      22.43      35.42      28.80
H      21.64      37.00      33.32
H      23.23      37.73      33.53
H      21.87      38.69      32.90
H       5.04      28.81      18.03
H       3.46      33.32      18.82
H       2.72      33.53      17.23
H       1.77      32.90      18.59
H       5.04      11.65      22.42
H       3.46       7.14      21.64
H       2.73       6.92      23.24
H       1.77       7.55      21.89
H      35.41      28.80      22.43
H      37.00      33.31      21.63
H      37.74      33.53      23.22
H      38.69      32.90      21.87
H      35.42      11.65      18.03
H      37.00       7.14      18.82
H      37.73       6.92      17.23
H      38.69       7.55      18.58
C      13.01      14.05       0.29
C      12.35      14.29       1.54
C      11.32      15.25       1.72
C      10.85      15.91       0.57
C      11.42      15.72      39.29
C      12.56      14.87      39.20
C      14.05      13.01       0.16
C      14.87      12.56       1.26
C      15.72      11.43       1.17
C      15.91      10.86      39.89
C      15.25      11.33      38.74
C      14.29      12.35      38.92
C      27.45      26.41       0.30
C      28.11      26.17       1.54
C      29.13      25.20       1.72
C      29.60      24.54       0.57
C      29.03      24.73      39.29
C      27.90      25.59      39.20
C      26.41      27.45       0.16
C      25.59      27.89       1.26
C      24.74      29.03       1.17
C      24.55      29.60      39.90
C      25.21      29.13      38.74
C      26.17      28.11      38.92
C      27.45      14.05       0.16
C      28.11      14.29      38.92
C      29.13      15.25      38.74
C      29.60      15.91      39.89
C      29.03      15.72       1.17
C      27.90      14.86       1.26
C      26.41      13.01       0.29
C      25.59      12.56      39.20
C      24.74      11.42      39.29
C      24.55      10.86       0.56
C      25.21      11.32       1.71
C      26.17      12.35       1.54
C      13.01      26.41       0.16
C      12.35      26.17      38.92
C      11.33      25.21      38.74
C      10.86      24.55      39.89
C      11.42      24.74       1.17
C      12.56      25.59       1.26
C      14.05      27.45       0.30
C      14.87      27.90      39.20
C      15.72      29.03      39.29
C      15.91      29.60       0.57
C      15.25      29.13       1.72
C      14.29      28.11       1.54
C       0.29      13.01      14.05
C       1.54      12.34      14.29
C       1.72      11.32      15.25
C       0.57      10.85      15.91
C      39.29      11.42      15.72
C      39.20      12.56      14.87
C       0.16      14.05      13.01
C       1.26      14.87      12.56
C       1.17      15.72      11.43
C      39.89      15.91      10.86
C      38.74      15.25      11.33
C      38.92      14.29      12.35
C       0.29      27.45      26.41
C       1.54      28.11      26.17
C       1.72      29.13      25.20
C       0.56      29.60      24.54
C      39.29      29.03      24.73
C      39.20      27.89      25.59
C       0.16      26.41      27.45
C       1.26      25.59      27.89
C       1.17      24.74      29.03
C      39.89      24.55      29.60
C      38.74      25.20      29.13
C      38.92      26.17      28.11
C       0.16      27.45      14.05
C      38.91      28.11      14.29
C      38.74      29.14      15.25
C      39.89      29.61      15.91
C       1.17      29.04      15.72
C       1.26      27.90      14.86
C       0.29      26.41      13.01
C      39.20      25.59      12.56
C      39.29      24.74      11.42
C       0.56      24.55      10.86
C       1.71      25.21      11.32
C       1.54      26.17      12.35
C       0.16      13.01      26.41
C      38.92      12.35      26.17
C      38.74      11.33      25.21
C      39.90      10.86      24.55
C       1.17      11.43      24.74
C       1.26      12.56      25.59
C       0.30      14.05      27.45
C      39.20      14.87      27.90
C      39.29      15.72      29.03
C       0.57      15.91      29.60
C       1.72      15.25      29.13
C       1.54      14.29      28.11
C      14.05       0.29      13.01
C      14.29       1.54      12.35
C      15.25       1.72      11.32
C      15.91       0.56      10.85
C      15.72      39.29      11.42
C      14.87      39.20      12.56
C      13.01       0.16      14.05
C      12.56       1.26      14.87
C      11.43       1.17      15.72
C      10.86      39.89      15.91
C      11.33      38.74      15.25
C      12.35      38.91      14.29
C      26.41       0.29      27.45
C      26.17       1.54      28.11
C      25.20       1.72      29.13
C      24.54       0.56      29.60
C      24.73      39.29      29.03
C      25.59      39.20      27.89
C      27.45       0.16      26.41
C      27.89       1.26      25.59
C      29.03       1.17      24.73
C      29.60      39.90      24.55
C      29.13      38.74      25.21
C      28.11      38.92      26.17
C      14.05       0.16      27.45
C      14.29      38.91      28.11
C      15.25      38.74      29.14
C      15.91      39.89      29.60
C      15.72       1.17      29.03
C      14.86       1.26      27.90
C      13.01       0.29      26.41
C      12.56      39.20      25.59
C      11.42      39.29      24.74
C      10.86       0.56      24.55
C      11.32       1.71      25.21
C      12.35       1.54      26.17
C      26.41       0.16      13.01
C      26.17      38.92      12.35
C      25.21      38.74      11.32
C      24.55      39.90      10.86
C      24.74       1.17      11.42
C      25.59       1.26      12.56
C      27.45       0.30      14.05
C      27.90      39.20      14.87
C      29.03      39.29      15.72
C      29.60       0.57      15.91
C      29.13       1.72      15.25
C      28.11       1.54      14.29
C      32.55      33.59      20.27
C      31.87      33.89      21.49
C      30.98      34.98      21.66
C      30.62      35.71      20.51
C      31.17      35.42      19.25
C      32.18      34.42      19.15
C      33.59      32.55      20.19
C      34.41      32.18      21.31
C      35.42      31.17      21.21
C      35.71      30.62      19.95
C      34.98      30.99      18.80
C      33.89      31.87      18.96
C       7.91       6.86      20.27
C       8.58       6.57      21.50
C       9.47       5.47      21.66
C       9.83       4.75      20.51
C       9.28       5.04      19.25
C       8.28       6.04      19.15
C       6.86       7.91      20.19
C       6.04       8.28      21.31
C       5.04       9.28      21.21
C       4.75       9.83      19.95
C       5.48       9.47      18.80
C       6.57       8.58      18.96
C       7.91      33.59      20.19
C       8.59      33.89      18.96
C       9.48      34.98      18.80
C       9.84      35.71      19.95
C       9.28      35.42      21.21
C       8.28      34.41      21.31
C       6.86      32.55      20.27
C       6.04      32.18      19.15
C       5.04      31.17      19.25
C       4.75      30.62      20.51
C       5.48      30.99      21.66
C       6.57      31.87      21.49
C      32.55       6.86      20.19
C      31.88       6.57      18.96
C      30.99       5.48      18.80
C      30.62       4.75      19.95
C      31.17       5.04      21.21
C      32.18       6.04      21.31
C      33.60       7.91      20.27
C      34.42       8.28      19.15
C      35.42       9.28      19.25
C      35.71       9.83      20.52
C      34.98       9.47      21.66
C      33.89       8.59      21.50
C      20.27      32.55      33.60
C      21.50      31.87      33.89
C      21.66      30.98      34.98
C      20.51      30.62      35.71
C      19.25      31.17      35.42
C      19.15      32.18      34.42
C      20.19      33.59      32.55
C      21.31      34.41      32.18
C      21.21      35.42      31.17
C      19.95      35.71      30.63
C      18.80      34.98      30.99
C      18.96      33.89      31.87
C      20.27       7.91       6.86
C      21.50       8.58       6.57
C      21.66       9.47       5.47
C      20.51       9.83       4.75
C      19.25       9.28       5.04
C      19.15       8.28       6.04
C      20.19       6.86       7.91
C      21.31       6.04       8.28
C      21.21       5.04       9.28
C      19.95       4.75       9.83
C      18.80       5.48       9.47
C      18.96       6.57       8.58
C      20.19       7.91      33.59
C      18.96       8.59      33.89
C      18.80       9.48      34.98
C      19.95       9.84      35.71
C      21.21       9.28      35.42
C      21.31       8.28      34.41
C      20.26       6.86      32.55
C      19.14       6.05      32.18
C      19.25       5.04      31.17
C      20.51       4.75      30.62
C      21.66       5.48      30.98
C      21.49       6.57      31.87
C      20.19      32.55       6.86
C      18.96      31.88       6.57
C      18.80      30.99       5.48
C      19.95      30.62       4.75
C      21.21      31.17       5.04
C      21.31      32.18       6.04
C      20.27      33.60       7.91
C      19.15      34.42       8.28
C      19.25      35.43       9.28
C      20.52      35.71       9.83
C      21.66      34.98       9.47
C      21.50      33.89       8.58
C      33.59      20.27      32.55
C      33.89      21.49      31.87
C      34.98      21.66      30.98
C      35.70      20.51      30.62
C      35.42      19.25      31.17
C      34.41      19.15      32.18
C      32.55      20.19      33.59
C      32.18      21.31      34.41
C      31.17      21.21      35.42
C      30.63      19.95      35.71
C      30.99      18.80      34.98
C      31.87      18.96      33.89
C       6.86      20.27       7.91
C       6.57      21.50       8.58
C       5.47      21.66       9.47
C       4.75      20.51       9.83
C       5.03      19.25       9.28
C       6.04      19.15       8.28
C       7.91      20.19       6.86
C       8.28      21.31       6.04
C       9.28      21.21       5.04
C       9.83      19.95       4.75
C       9.47      18.80       5.48
C       8.58      18.96       6.57
C      33.59      20.19       7.91
C      33.89      18.96       8.59
C      34.98      18.80       9.48
C      35.71      19.94       9.84
C      35.42      21.21       9.28
C      34.41      21.31       8.28
C      32.55      20.27       6.87
C      32.18      19.14       6.05
C      31.17      19.25       5.04
C      30.62      20.51       4.75
C      30.99      21.66       5.48
C      31.87      21.49       6.57
C       6.86      20.19      32.55
C       6.57      18.97      31.87
C       5.48      18.80      30.99
C       4.75      19.95      30.63
C       5.04      21.21      31.18
C       6.04      21.31      32.18
C       7.91      20.27      33.60
C       8.28      19.15      34.42
C       9.28      19.25      35.43
C       9.83      20.52      35.71
C       9.47      21.66      34.98
C       8.59      21.50      33.89
C      16.81       8.98      36.40
C      17.53       9.86      35.53
C      17.22      11.24      35.67
C      15.71      10.84      37.48
C      17.03       7.52      36.53
C      23.65      31.48      36.40
C      22.93      30.60      35.53
C      23.24      29.23      35.67
C      24.75      29.62      37.48
C      23.44      32.94      36.52
C      23.65       8.98       4.05
C      22.93       9.86       4.92
C      23.24      11.23       4.79
C      24.75      10.83       2.98
C      23.43       7.52       3.93
C      16.81      31.48       4.06
C      17.53      30.61       4.92
C      17.22      29.23       4.80
C      15.71      29.62       2.98
C      17.03      32.94       3.93
C      36.40      16.81       8.98
C      35.53      17.53       9.86
C      35.67      17.22      11.24
C      37.48      15.71      10.84
C      36.52      17.03       7.52
C      36.40      23.64      31.48
C      35.54      22.93      30.60
C      35.67      23.24      29.22
C      37.48      24.75      29.62
C      36.53      23.42      32.94
C       4.06      23.65       8.97
C       4.92      22.93       9.85
C       4.78      23.24      11.23
C       2.98      24.76      10.83
C       3.94      23.44       7.51
C       4.06      16.82      31.48
C       4.92      17.53      30.60
C       4.79      17.22      29.23
C       2.98      15.71      29.63
C       3.94      17.03      32.94
C       8.98      36.40      16.81
C       9.86      35.53      17.53
C      11.24      35.67      17.22
C      10.84      37.47      15.71
C       7.52      36.53      17.03
C      31.48      36.40      23.65
C      30.60      35.53      22.93
C      29.23      35.67      23.24
C      29.62      37.48      24.75
C      32.94      36.52      23.43
C       8.98       4.05      23.65
C       9.86       4.92      22.93
C      11.23       4.79      23.24
C      10.83       2.98      24.75
C       7.52       3.93      23.43
C      31.48       4.06      16.81
C      30.61       4.92      17.53
C      29.23       4.80      17.22
C      29.62       2.98      15.71
C      32.94       3.93      17.03
C       8.98      16.81       4.06
C       9.85      17.53       4.92
C      11.23      17.22       4.79
C      10.83      15.71       2.98
C       7.52      17.02       3.94
C      31.48      23.64       4.06
C      30.60      22.93       4.92
C      29.22      23.24       4.79
C      29.62      24.75       2.98
C      32.94      23.43       3.93
C       8.98      23.65      36.40
C       9.85      22.93      35.54
C      11.23      23.24      35.67
C      10.83      24.76      37.48
C       7.51      23.44      36.52
C      31.48      16.82      36.40
C      30.60      17.53      35.53
C      29.22      17.22      35.66
C      29.62      15.71      37.48
C      32.94      17.03      36.53
C      16.81      36.40      31.48
C      17.53      35.54      30.60
C      17.22      35.67      29.23
C      15.71      37.48      29.62
C      17.03      36.53      32.94
C      23.65      36.40       8.98
C      22.93      35.54       9.85
C      23.24      35.67      11.23
C      24.75      37.48      10.83
C      23.44      36.52       7.51
C      23.64       4.06      31.48
C      22.93       4.92      30.60
C      23.24       4.79      29.22
C      24.75       2.98      29.62
C      23.42       3.93      32.94
C      16.81       4.06       8.98
C      17.53       4.93       9.85
C      17.22       4.79      11.23
C      15.71       2.98      10.84
C      17.03       3.93       7.52
C      36.40       8.98      23.65
C      35.54       9.85      22.93
C      35.67      11.23      23.24
C      37.48      10.84      24.75
C      36.52       7.52      23.44
C      36.40      31.48      16.81
C      35.54      30.60      17.53
C      35.67      29.23      17.22
C      37.48      29.63      15.70
C      36.52      32.94      17.02
C       4.06       8.97      16.81
C       4.92       9.85      17.53
C       4.79      11.23      17.22
C       2.98      10.83      15.70
C       3.94       7.51      17.02
C       4.05      31.48      23.64
C       4.92      30.60      22.93
C       4.79      29.22      23.24
C       2.98      29.62      24.75
C       3.93      32.94      23.43
C      22.75      31.51       3.09
C      22.29      30.75       4.20
C      22.75      29.42       4.29
C      23.99      29.60       2.26
C      22.35      32.89       2.75
C      17.71       8.95       3.09
C      18.17       9.70       4.20
C      17.70      11.04       4.29
C      16.47      10.86       2.26
C      18.11       7.57       2.75
C      17.71      31.51      37.37
C      18.17      30.75      36.26
C      17.70      29.42      36.17
C      16.47      29.60      38.20
C      18.12      32.89      37.71
C      22.75       8.95      37.36
C      22.29       9.70      36.26
C      22.76      11.04      36.17
C      23.99      10.85      38.20
C      22.35       7.57      37.70
C       3.09      22.75      31.51
C       4.20      22.29      30.76
C       4.29      22.76      29.42
C       2.26      23.99      29.60
C       2.75      22.35      32.89
C       3.09      17.70       8.95
C       4.20      18.17       9.70
C       4.29      17.71      11.04
C       2.26      16.47      10.85
C       2.75      18.11       7.57
C      37.37      17.71      31.51
C      36.26      18.17      30.76
C      36.16      17.70      29.42
C      38.20      16.47      29.60
C      37.71      18.12      32.89
C      37.37      22.75       8.95
C      36.26      22.29       9.70
C      36.17      22.75      11.04
C      38.20      23.99      10.85
C      37.71      22.34       7.57
C      31.51       3.09      22.75
C      30.75       4.20      22.29
C      29.42       4.29      22.75
C      29.60       2.26      23.99
C      32.89       2.75      22.35
C       8.95       3.09      17.71
C       9.70       4.20      18.17
C      11.04       4.29      17.70
C      10.85       2.26      16.47
C       7.57       2.75      18.12
C      31.51      37.37      17.71
C      30.75      36.26      18.17
C      29.42      36.17      17.70
C      29.60      38.20      16.47
C      32.89      37.71      18.12
C       8.95      37.36      22.75
C       9.70      36.26      22.29
C      11.04      36.16      22.76
C      10.85      38.20      23.99
C       7.57      37.70      22.34
C      31.51      22.75      37.37
C      30.76      22.29      36.26
C      29.42      22.76      36.17
C      29.60      23.99      38.20
C      32.89      22.34      37.71
C       8.95      17.70      37.37
C       9.70      18.17      36.26
C      11.04      17.71      36.17
C      10.85      16.47      38.20
C       7.56      18.11      37.71
C      31.51      17.71       3.09
C      30.76      18.16       4.20
C      29.42      17.70       4.30
C      29.60      16.47       2.26
C      32.89      18.12       2.75
C       8.95      22.75       3.09
C       9.70      22.29       4.20
C      11.04      22.75       4.29
C      10.85      23.99       2.26
C       7.57      22.35       2.75
C      22.76       3.09       8.95
C      22.29       4.20       9.70
C      22.75       4.29      11.04
C      23.99       2.26      10.85
C      22.35       2.75       7.56
C      17.71       3.09      31.51
C      18.16       4.20      30.76
C      17.70       4.29      29.42
C      16.47       2.26      29.61
C      18.12       2.75      32.89
C      17.71      37.37       8.95
C      18.17      36.26       9.70
C      17.71      36.17      11.04
C      16.47      38.20      10.85
C      18.11      37.71       7.56
C      22.75      37.37      31.51
C      22.29      36.26      30.76
C      22.76      36.16      29.42
C      23.99      38.20      29.60
C      22.34      37.71      32.89
C       3.09      31.51      17.71
C       4.20      30.76      18.17
C       4.29      29.42      17.70
C       2.26      29.61      16.47
C       2.75      32.89      18.12
C       3.09       8.95      22.76
C       4.20       9.70      22.29
C       4.29      11.04      22.75
C       2.26      10.85      23.99
C       2.75       7.56      22.35
C      37.37      31.51      22.75
C      36.26      30.75      22.29
C      36.16      29.42      22.76
C      38.20      29.60      23.99
C      37.71      32.89      22.34
C      37.37       8.95      17.71
C      36.26       9.70      18.17
C      36.17      11.04      17.71
C      38.20      10.85      16.47
C      37.71       7.57      18.11
N      16.37      11.68      36.64
N      15.98       9.51      37.34
N      24.09      28.78      36.65
N      24.48      30.95      37.34
N      24.09      11.68       3.82
N      24.48       9.51       3.12
N      16.37      28.79       3.82
N      15.98      30.95       3.12
N      36.64      16.37      11.68
N      37.34      15.98       9.51
N      36.64      24.08      28.78
N      37.34      24.48      30.95
N       3.81      24.08      11.67
N       3.12      24.49       9.50
N       3.82      16.37      28.79
N       3.12      15.98      30.95
N      11.68      36.64      16.38
N       9.51      37.34      15.98
N      28.78      36.64      24.09
N      30.95      37.34      24.48
N      11.68       3.82      24.09
N       9.51       3.12      24.48
N      28.79       3.82      16.37
N      30.95       3.12      15.98
N      11.67      16.37       3.82
N       9.51      15.98       3.12
N      28.78      24.08       3.82
N      30.95      24.48       3.12
N      11.67      24.09      36.65
N       9.51      24.49      37.34
N      28.78      16.37      36.64
N      30.95      15.98      37.34
N      16.37      36.64      28.78
N      15.98      37.34      30.95
N      24.09      36.65      11.67
N      24.49      37.34       9.51
N      24.08       3.82      28.78
N      24.47       3.12      30.95
N      16.37       3.82      11.67
N      15.98       3.12       9.51
N      36.64      11.68      24.09
N      37.34       9.51      24.48
N      36.64      28.79      16.37
N      37.33      30.95      15.97
N       3.81      11.67      16.37
N       3.12       9.50      15.97
N       3.82      28.78      24.09
N       3.12      30.95      24.48
N      23.56      28.89       3.34
N      23.57      30.90       2.19
N      16.89      11.57       3.33
N      16.89       9.56       2.19
N      16.90      28.89      37.13
N      16.89      30.90      38.27
N      23.56      11.57      37.12
N      23.57       9.56      38.27
N       3.34      23.56      28.89
N       2.19      23.57      30.90
N       3.33      16.90      11.57
N       2.19      16.89       9.56
N      37.12      16.89      28.89
N      38.27      16.89      30.90
N      37.12      23.56      11.57
N      38.27      23.57       9.56
N      28.89       3.34      23.56
N      30.90       2.19      23.57
N      11.57       3.33      16.90
N       9.56       2.19      16.89
N      28.89      37.13      16.90
N      30.90      38.27      16.89
N      11.57      37.12      23.56
N       9.56      38.27      23.57
N      28.89      23.56      37.12
N      30.90      23.56      38.27
N      11.57      16.90      37.13
N       9.56      16.89      38.27
N      28.89      16.89       3.34
N      30.90      16.89       2.19
N      11.57      23.56       3.33
N       9.56      23.57       2.19
N      23.56       3.33      11.57
N      23.57       2.19       9.56
N      16.89       3.34      28.89
N      16.89       2.19      30.90
N      16.90      37.13      11.57
N      16.89      38.27       9.56
N      23.56      37.12      28.89
N      23.57      38.27      30.90
N       3.33      28.89      16.89
N       2.19      30.90      16.89
N       3.33      11.57      23.56
N       2.19       9.56      23.57
N      37.12      28.89      23.56
N      38.27      30.90      23.56
N      37.13      11.57      16.90
N      38.27       9.56      16.89
O      13.24      14.88      38.02
O      14.88      13.24       2.44
O      27.22      25.58      38.02
O      25.58      27.22       2.44
O      27.22      14.88       2.44
O      25.58      13.24      38.02
O      13.24      25.58       2.44
O      14.88      27.22      38.02
O      38.02      13.24      14.88
O       2.44      14.88      13.24
O      38.02      27.22      25.58
O       2.44      25.58      27.22
O       2.44      27.22      14.88
O      38.02      25.58      13.24
O       2.44      13.24      25.58
O      38.02      14.88      27.22
O      14.88      38.02      13.24
O      13.24       2.44      14.88
O      25.58      38.02      27.22
O      27.22       2.44      25.58
O      14.88       2.44      27.22
O      13.24      38.02      25.58
O      25.58       2.44      13.24
O      27.22      38.02      14.88
O      32.88      34.38      17.98
O      34.37      32.88      22.48
O       7.58       6.08      17.98
O       6.08       7.58      22.48
O       7.58      34.37      22.48
O       6.08      32.88      17.98
O      32.88       6.09      22.48
O      34.38       7.58      17.98
O      17.98      32.88      34.38
O      22.48      34.37      32.88
O      17.98       7.58       6.08
O      22.48       6.08       7.58
O      22.48       7.58      34.37
O      17.97       6.09      32.88
O      22.48      32.88       6.09
O      17.98      34.38       7.58
O      34.37      17.98      32.88
O      32.88      22.48      34.37
O       6.08      17.98       7.58
O       7.58      22.48       6.08
O      34.37      22.48       7.58
O      32.88      17.97       6.09
O       6.09      22.48      32.88
O       7.58      17.98      34.38
