74

C       0.53       5.96      35.70
C       0.52       5.80      34.30
C      -3.17       6.19      36.47
C      -3.28       7.18      37.46
C      -4.43       7.23      38.24
C      -5.35       5.41      37.15
C      -4.25       5.30      36.31
C       1.77       6.00      36.49
C       1.91       5.21      37.65
C       3.05       5.33      38.43
C       3.94       6.92      37.02
C       2.84       6.85      36.17
C      -3.73       7.25      33.45
C       2.28       4.34      33.69
C      -0.69       5.76      32.10
C      -0.68       4.53      31.43
C      -0.72       4.47      30.02
C      -0.73       5.68      29.32
C      -0.72       6.93      29.95
C      -0.71       6.95      31.36
C      -0.72       3.21      29.26
C       0.20       2.18      29.51
C       0.24       1.08      28.65
C      -1.50       1.91      27.37
C      -1.59       3.05      28.17
C      -0.66       8.15      29.13
C       0.23       8.22      28.04
C       0.28       9.37      27.26
C      -1.37      10.37      28.53
C      -1.47       9.27      29.37
C      -1.90       2.82      32.55
C       0.58       8.72      32.30
C      -1.91       5.96      34.28
C      -1.93       6.07      35.68
C      -0.69       5.83      33.59
H      -1.69       1.96      33.20
C      -0.70       6.09      36.35
H       0.89       2.25      30.34
N      -5.45       6.36      38.11
N       4.05       6.19      38.15
N      -0.59       0.94      27.59
N      -0.50      10.44      27.49
H      -2.33       3.81      27.94
H      -2.01      11.24      28.67
H      -0.70       6.21      37.44
H      -2.50       7.92      37.58
H      -4.56       8.01      39.00
H      -6.19       4.73      37.08
H      -4.21       4.51      35.56
H       1.13       4.49      37.91
H       3.20       4.72      39.32
H       4.77       7.60      36.81
H       2.81       7.46      35.27
H      -4.14       7.55      34.42
H      -4.55       7.12      32.73
H      -3.03       8.01      33.08
O      -0.60       3.36      32.17
O       1.70       5.67      33.58
H       3.24       4.39      33.16
H      -0.75       5.65      28.23
O      -0.73       8.16      32.04
H       1.61       3.60      33.22
H       2.45       4.07      34.74
O      -3.08       5.96      33.53
H       0.89       7.38      27.82
H       0.98       9.47      26.44
H       0.98       0.30      28.79
H      -2.18       9.28      30.19
H      -2.48       3.57      33.11
H      -2.17       1.74      26.53
H      -2.45       2.51      31.66
H       1.25       7.96      32.72
H       0.44       9.53      33.02
H       1.01       9.12      31.37
