74

N       6.40       7.29      23.81
C       4.50      12.02      31.91
C       5.85      12.04      28.34
C       5.98      10.83      27.63
C       6.09      10.82      26.23
C       6.10      12.05      25.56
C       5.98      13.28      26.23
C       5.82      13.26      27.63
C       6.20       9.58      25.44
C       7.21       9.46      24.47
C       7.27       8.31      23.69
C       5.44       7.40      24.76
H       6.22      12.06      24.48
C       6.02      14.53      25.45
C       5.23      14.66      24.29
C       5.31       8.51      25.59
C       6.96      16.68      24.91
H       4.50      13.90      24.03
H       4.75      15.95      22.61
N       6.22      16.80      23.79
C       5.78      12.03      29.82
H       7.64      17.51      25.12
H       7.13       8.18      29.17
C       6.88      15.59      25.77
C       7.26       9.01      28.47
C       4.55      12.06      30.50
C       4.37      15.03      28.24
N       0.96      12.17      34.34
H       7.99       9.73      28.87
H       7.50      15.54      26.66
H       7.61       8.63      27.50
N      10.47      12.23      34.44
C       3.24      12.03      32.67
H       4.10      15.21      27.19
H       5.67      11.99      33.70
H       2.28      13.64      31.59
C       5.71      12.00      32.62
C       2.84      10.85      29.39
H       3.59      10.25      28.86
H       1.99      11.06      28.72
H       2.50      10.31      30.28
C       2.21      12.95      32.43
C       3.07      11.16      33.77
H       3.82      10.41      33.99
C       1.93      11.26      34.56
H       4.42      15.98      28.79
H       1.76      10.59      35.41
C       8.18      12.06      32.80
H       7.39      13.59      34.12
H       9.47      13.69      35.51
O       5.96       9.65      28.36
O       5.69      14.43      28.35
O       3.39      12.14      29.76
O       8.18      11.95      29.89
C       8.24      12.94      33.90
H      11.29      10.75      33.24
C       9.38      13.00      34.68
H       9.33      10.56      31.73
C       6.95      11.99      31.98
C       1.11      13.00      33.28
C      10.41      11.37      33.39
C       9.31      11.26      32.56
H       3.63      14.36      28.70
H       7.96      10.24      24.35
C       8.76      13.26      29.65
H       8.01      13.94      29.22
H       8.06       8.17      22.94
H       9.58      13.12      28.94
C       6.98      11.99      30.57
H       4.75       6.56      24.82
H       9.15      13.68      30.59
H       0.33      13.74      33.14
H       4.52       8.54      26.33
C       5.36      15.80      23.50
