22

Zn       3.78       6.28      23.02
Zn       6.05       7.57      21.83
Zn       3.86       8.66      24.68
Zn       1.59       7.37      25.87
C       4.22       8.07      27.37
O       4.93       4.70      22.69
O       6.72       5.71      21.70
O       7.06       8.75      20.69
O       4.90       7.95      23.27
O       4.58       7.38      20.38
O       2.81       6.28      21.28
O       2.71      10.24      25.01
O       0.92       9.23      26.00
O       0.58       6.19      27.01
O       2.74       6.99      24.42
O       3.06       7.56      27.31
O       4.83       8.66      26.41
C       8.17       9.08      21.28
C       6.06       4.69      22.06
C       3.42       6.87      20.32
C       1.58      10.25      25.64
C      -0.53       5.85      26.42
