15

C       3.28      11.20      13.52
C       0.85      10.97      11.78
C       1.91       7.73      14.29
C       1.34       9.82      12.60
H       3.49       8.93      15.09
C       2.68       8.89      14.36
C       2.40       9.96      13.51
O       0.50      10.82      10.55
N       0.88       7.61      13.42
H      -0.24       8.51      11.91
O       3.64      11.68      12.43
O       0.64      12.09      12.38
C       0.61       8.63      12.58
O       3.60      11.63      14.70
H       2.10       6.88      14.94
