15

C      -1.28       3.35      13.02
C      -3.31       2.20      13.66
C      -2.88       4.52      14.21
O      -4.98       0.86      12.64
O      -0.38       1.15      11.66
H      -4.68       3.49      14.73
C      -3.71       3.41      14.25
C      -2.04       2.18      13.04
O      -4.40       0.42      14.79
N      -1.67       4.49      13.61
C      -4.30       1.05      13.66
H      -0.32       3.36      12.53
C      -1.45       1.00      12.37
O      -2.01      -0.15      12.45
H      -3.18       5.46      14.66
