16

O       7.43       0.73       2.87
O       2.54       0.87       4.08
H       6.16       0.03       8.46
H       7.96       0.18       6.78
H       5.05       0.59       3.65
H       3.77       0.03       7.74
O       1.94      -0.22       5.94
O       8.93       0.33       4.50
C       5.91       0.12       7.40
C       6.93       0.21       6.45
C       6.62       0.38       5.10
C       5.28       0.45       4.71
C       4.25       0.32       5.65
C       4.57       0.14       7.01
C       7.73       0.48       4.07
C       2.82       0.33       5.22
