61

H      13.04       9.22       0.69
H      16.11       2.65       7.91
H      16.23       7.57       7.93
H      16.89       8.18       5.87
H      16.22       9.54       3.91
H      13.15       6.68       2.97
H      13.76       5.35       4.96
H      16.81       4.23       4.23
H      16.04       2.76       2.38
H      12.84       1.31       4.85
H      13.68       2.71       6.75
H      15.34       2.11       9.93
H      15.93       0.71      11.89
H      19.23       3.30      12.78
H      18.62       4.74      10.86
H      15.49       5.58      11.59
H      16.00       6.97      13.58
H      18.89       9.19      11.31
H      18.32       7.87       9.28
C      15.80       5.83       6.73
C      15.74       4.41       6.76
C      16.12       3.74       7.93
C      16.54       4.39       9.10
C      16.57       5.81       9.09
C      16.23       6.48       7.91
C      15.39       6.65       5.56
C      16.04       7.86       5.26
C      15.68       8.63       4.16
C      14.64       8.20       3.32
C      13.97       7.00       3.61
C      14.32       6.25       4.73
C      14.28       9.00       2.13
C      15.29       3.57       5.62
C      15.95       3.59       4.37
C      15.51       2.77       3.33
C      14.39       1.95       3.50
C      13.73       1.93       4.74
C      14.20       2.71       5.80
C      13.84       1.13       2.39
C      16.93       3.55      10.26
C      16.20       2.38      10.54
C      16.52       1.59      11.64
C      17.60       1.92      12.47
C      18.36       3.06      12.17
C      18.02       3.87      11.09
C      17.94       1.04      13.62
C      16.88       6.62      10.29
C      16.23       6.38      11.52
C      16.51       7.15      12.64
C      17.50       8.15      12.57
C      18.13       8.42      11.35
C      17.80       7.68      10.22
C      17.89       8.85      13.83
O      14.91      10.04       1.82
O      13.24       8.56       1.45
O      12.70       0.59       2.55
O      14.48       1.01       1.28
O      19.16       0.95      13.97
O      16.97       0.41      14.16
O      19.11       9.18      13.97
O      16.98       9.01      14.73
