27

C      12.08       7.52       2.71
H      11.89       6.21      -1.63
C      13.62       8.13       0.78
N      15.75       9.19      -1.81
C      13.64       8.07      -0.75
O      10.90       9.05      -3.18
C      11.43       6.78       0.47
C      11.42       9.18       1.02
C      12.16       7.90       1.28
C      12.19       8.35      -1.32
O      13.18       7.09       3.27
C      11.42       7.04      -1.07
O      10.88       7.31       3.14
C      11.43       9.42      -0.50
O      13.19       9.26      -3.29
C      12.11       8.80      -2.75
C      14.80       8.74      -1.32
H      10.37       9.08       1.38
H      11.88      10.03       1.57
H      11.76      10.42      -0.78
H      10.38       9.29      -0.79
H      10.38       6.67       0.80
H      10.37       7.11      -1.43
H      14.37       7.43       1.20
H      13.95       9.12       1.13
H      13.86       7.03      -1.00
H      11.93       5.86       0.72
