27

H       5.76       3.15       1.64
C       4.40       3.08      -2.70
C       3.32       1.97      -0.71
N       1.48       0.49       1.85
C       3.41       1.94       0.82
O       3.67       4.85       3.18
C       5.35       3.53      -0.47
C       3.11       4.40      -1.00
C       4.03       3.23      -1.27
C       3.62       3.41       1.33
C       5.08       3.77       1.02
O       4.22       1.91      -3.27
C       2.72       4.36       0.50
O       5.18       4.01      -3.14
O       2.34       2.97       3.29
C       3.29       3.68       2.76
C       2.31       1.15       1.39
H       3.67       5.32      -1.25
H       2.20       4.35      -1.65
H       1.70       3.98       0.63
H       2.78       5.38       0.90
H       5.87       4.43      -0.87
H       5.28       4.84       1.27
H       3.64       1.05      -1.18
H       2.27       2.04      -1.03
H       4.31       1.40       1.10
H       6.01       2.70      -0.63
