50

U       5.89      -3.72      13.31
U       2.46      -7.38      15.42
Cu      -2.29      -4.78      21.38
C       2.91      -3.88      15.03
Cu      10.68      -6.24       7.38
C       3.09     -10.50      15.44
C      -2.61      -3.61      18.99
N      -1.33      -6.37      20.59
N      -2.75      -6.21      22.78
N      -0.67      -3.81      22.26
N      -3.23      -3.21      22.23
N       9.73      -4.65       8.17
N      11.14      -4.81       5.98
N       9.07      -7.20       6.50
N      11.62      -7.82       6.55
O       0.92      -6.30      17.05
O       1.41      -8.47      17.29
O       4.18      -7.21      13.82
O       6.11      -6.04      13.87
O       4.83      -1.69      13.04
O      11.74      -6.61       9.08
O       7.49      -4.71      11.72
O       6.97      -2.55      11.47
C      -0.04      -7.49      18.91
C      -4.53      -2.96      22.08
C      -2.16      -7.42      22.56
C      -3.36      -5.97      23.94
O       4.21      -3.81      14.93
O       2.29      -5.00      14.92
C      -0.68      -6.36      19.43
O       3.63      -9.33      15.72
C       0.61      -4.20      22.25
O      -3.34      -4.40      19.69
C      -2.39      -2.26      22.77
C      -1.46      -7.53      21.30
C      -1.00      -2.62      22.84
C       0.77      -7.41      17.69
C       5.47      -7.15      13.74
C       5.33      -0.51      13.32
C      11.01      -7.41       9.77
C      12.92      -8.06       6.69
C       8.43      -3.52       9.85
C      10.55      -3.61       6.20
C      11.76      -5.05       4.83
C       9.07      -4.66       9.33
C       7.79      -6.82       6.52
C      10.79      -8.76       5.99
C       9.85      -3.49       7.46
C       9.39      -8.40       5.93
C       7.62      -3.59      11.07
