28

O       8.52       5.38       2.59
O       9.32       4.60       5.51
P       7.97       4.14       3.27
P       4.61       9.13       8.50
H       6.38       4.15       2.10
H       9.34       4.68       6.33
O       3.78      10.34       8.72
O       6.09       9.36       8.89
O       4.06       7.89       9.18
O       3.26       8.67       6.26
H       7.62       3.61       5.51
H       5.52       4.46       5.95
H       8.45       7.07       5.18
H       6.20       9.12       9.67
H       3.25       8.59       5.44
H       4.96       9.66       6.26
H       7.06       8.81       5.82
H       4.13       6.20       6.59
C       7.97       4.41       5.08
C       7.12       5.58       5.51
C       5.83       5.33       5.92
C       7.59       6.89       5.46
C       4.61       8.86       6.69
C       5.47       7.69       6.26
C       6.75       7.94       5.85
C       5.00       6.38       6.31
O       8.81       2.93       3.05
O       6.50       3.91       2.88
