13

H      14.54       9.03       7.23
H      15.50      10.88       5.86
H      18.80      11.20       8.37
H      17.96       9.32       9.83
O      14.32       7.79       9.41
O      16.30       7.47      10.45
C      15.58       8.00       9.58
C      15.49       9.48       7.51
C      16.03      10.50       6.74
C      16.17       9.04       8.66
C      17.87      10.68       8.16
C      17.39       9.65       8.97
N      17.20      11.09       7.07
