13

C       6.65       5.05       1.71
C       6.62       3.97       2.76
C       5.40       3.35       3.07
C       5.39       2.34       4.02
C       7.77       3.55       3.44
O       5.58       5.66       1.44
O       7.80       5.25       1.16
C       7.67       2.55       4.40
H       4.48       3.65       2.57
N       6.50       1.95       4.68
H       8.73       4.00       3.21
H       8.54       2.19       4.95
H       4.47       1.81       4.29
