33

Cd       4.76       4.09      14.55
Cd       1.85       6.01      13.34
Cd       1.74       2.07      15.33
C      -0.72       4.05      14.08
C       2.39       5.05      16.45
C       4.72       7.32      14.10
C       2.70       3.03      12.37
C       4.53       0.77      14.87
C      -0.37       8.01      14.61
C       1.07       9.19      13.23
C       7.76       2.97      14.65
C       7.72       5.07      13.65
C      -0.36      -0.02      13.82
C       0.83      -1.05      15.52
C      -0.04       2.60      17.98
C       0.71       5.51      10.34
C       2.55       6.92      10.29
C       1.77       1.25      18.51
N       0.66       8.01      13.74
N       7.04       4.03      14.20
N       0.58       0.06      14.79
N       1.64       6.23      11.01
N       1.05       1.91      17.57
O       1.93       5.92      15.65
O       3.27       4.10      12.86
O      -0.16       4.85      13.27
O       3.11       4.01      16.11
O       3.57       0.71      15.71
O      -0.17       3.28      14.93
O       3.82       7.33      13.20
O       2.10       2.14      13.04
O       5.07       6.34      14.84
O       5.01       1.82      14.33
