40

N       8.63      16.26      12.00
Cd      10.26      17.24      14.77
N       8.64      13.08      11.38
N       8.63      12.16      16.43
N       7.57      11.24      11.86
N      12.92      17.87      13.05
Cl      10.26      19.73      15.21
Cd      10.26      11.18      13.65
Cd      10.26      14.77      11.18
Cl      10.26      15.21       8.69
Cl      10.26      13.22      19.73
Cd      10.26      13.65      17.24
Cl      10.26       8.69      13.22
N       7.59      10.56      15.38
N      12.94      16.57      11.24
N      11.89      16.26      12.00
N       8.64      11.38      15.34
N      12.92      10.56      15.38
N       8.63      16.43      16.26
N      12.92      15.38      17.87
N      12.94      11.86      17.18
N      12.92      13.05      10.56
N       7.57      11.86      17.18
N      11.89      12.00      12.16
N      11.87      11.38      15.34
N      11.87      17.04      13.08
N      11.89      16.43      16.26
N      11.87      15.34      17.04
N       7.59      17.87      13.05
N       7.57      16.57      11.24
N       8.63      12.00      12.16
N       8.64      17.04      13.08
N      11.89      12.16      16.43
N      11.87      13.08      11.38
N       8.64      15.34      17.04
N      12.94      11.24      11.86
N       7.59      15.38      17.87
N      12.94      17.18      16.57
N       7.57      17.18      16.57
N       7.59      13.05      10.56
