40

Cd      10.26       0.56       3.03
N       8.64      -2.83      -1.13
N       8.63       2.21      -2.05
N       7.59       3.66       1.17
N      11.89      -2.05      -2.21
N      11.89      -2.21       2.05
Cd      10.26      -3.03       0.56
Cd      10.26       3.03      -0.56
N      12.92      -3.66      -1.17
N      11.87       1.13      -2.83
Cl      10.26       5.52      -0.99
Cd      10.26      -0.56      -3.03
Cl      10.26      -0.99      -5.52
Cl      10.26       0.99       5.52
Cl      10.26      -5.52       0.99
N      11.87       2.83       1.13
N      11.87      -1.13       2.83
N      11.89       2.05       2.21
N       7.57      -2.35      -2.97
N       7.57       2.97      -2.35
N      12.94       2.97      -2.35
N      12.92       1.17      -3.66
N       7.59      -3.66      -1.17
N       7.59      -1.17       3.66
N       8.64       1.13      -2.83
N       7.57       2.35       2.97
N       8.64       2.83       1.13
N       8.63       2.05       2.21
N      12.92       3.66       1.17
N      12.94      -2.97       2.35
N      11.87      -2.83      -1.13
N       8.63      -2.05      -2.21
N      12.94       2.35       2.97
N      12.94      -2.35      -2.97
N       7.57      -2.97       2.35
N      11.89       2.21      -2.05
N       7.59       1.17      -3.66
N       8.64      -1.13       2.83
N      12.92      -1.17       3.66
N       8.63      -2.21       2.05
