462

C       3.54      10.02      17.37
C       2.47      10.70      16.74
C       1.34      11.10      17.47
C       1.17      10.77      18.84
C       2.30      10.17      19.48
C       3.45       9.80      18.76
C      23.49      11.18      19.57
C       0.12      12.69      19.71
C       1.20      13.17      20.50
C       1.61      14.52      20.49
C       0.88      15.50      19.78
C      23.35      15.06      19.07
C      23.02      13.69      18.98
C      22.25      10.72      18.79
C      23.24      10.53      20.94
C      22.49      11.20      21.95
C      22.02      10.54      23.11
C      22.35       9.19      23.37
C      23.12       8.52      22.39
C      23.47       9.15      21.18
C      22.27       9.64      17.87
C      21.14       9.23      17.15
C      19.88       9.82      17.39
C      19.80      10.81      18.39
C      20.95      11.25      19.07
C      19.28      28.24      14.28
C      18.21      27.36      14.01
C      17.08      27.79      13.29
C      16.91      29.15      12.89
C      18.04      -6.77      13.09
C      19.19      -7.20      13.77
C      15.62      29.57      12.17
C      15.86      28.93      10.80
C      16.94      29.38       9.99
C      17.35      28.70       8.82
C      16.62      27.60       8.32
C      15.48      27.20       9.07
C      15.15      27.81      10.30
C      14.38      29.12      12.96
C      15.37      -5.68      12.05
C      14.61      -5.13      10.97
C      14.15      -3.80      10.96
C      14.48      -2.90      12.00
C      15.24      -3.42      13.08
C      15.60      -4.78      13.13
C      14.40      -7.89      14.36
C      13.27      -8.32      15.07
C      12.01      28.37      14.44
C      11.93      28.74      13.08
C      13.08      29.10      12.36
C      11.41      16.45       0.04
C      10.34      16.67       0.94
C       9.21      15.83       0.93
C       9.04      -3.57      31.79
C      10.17      -3.83      30.95
C      11.32      -3.02      30.99
C       7.75      -4.41      31.78
C       7.99      13.10       1.19
C       9.08      12.17       1.20
C       9.48      11.51       2.38
C       8.75      11.62       3.58
C       7.61      12.47       3.55
C       7.28      13.23       2.41
C       6.51      -3.51      31.77
C       7.50      -5.27      30.53
C       6.74      -6.48      30.60
C       6.28      -7.15      29.45
C       6.61      -6.70      28.15
C       7.37      -5.51      28.07
C       7.73      -4.78      29.22
C       6.53      -2.17      31.30
C       5.39      -1.34      31.31
C       4.13      -1.84      31.69
C       4.06      15.17       0.21
C       5.21      14.37       0.25
C      15.34       8.08      14.37
C      14.28       7.40      15.00
C      13.15       7.00      14.27
C      12.98       7.33      12.89
C      14.10       7.93      12.26
C      15.26       8.30      12.98
C      11.69       6.92      12.16
C      11.93       5.41      12.03
C      13.01       4.93      11.24
C      13.41       3.58      11.25
C      12.68       2.60      11.95
C      11.54       3.04      12.67
C      11.22       4.41      12.76
C      10.44       7.38      12.95
C      11.43       7.57      10.79
C      10.68       6.90       9.79
C      10.22       7.57       8.63
C      10.54       8.92       8.37
C      11.31       9.58       9.35
C      11.67       8.95      10.56
C      10.47       8.46      13.87
C       9.33       8.87      14.59
C       8.07       8.28      14.34
C       7.99       7.29      13.34
C       9.15       6.85      12.67
C       7.47      26.62      17.46
C       6.41      -9.26      17.73
C       5.28      -9.69      18.44
C       5.11      25.71      18.84
C       6.23      24.87      18.65
C       7.39      25.30      17.97
C       3.82      25.28      19.56
C       4.05     -10.83      20.94
C       5.14     -11.28      21.75
C       5.54     -10.60      22.91
C       4.81      -9.49      23.41
C       3.67      -9.10      22.67
C       3.35      -9.71      21.44
C       2.57      25.73      18.78
C       3.56      23.77      19.69
C       2.81      23.24      20.77
C       2.35      21.90      20.77
C       2.67      21.00      19.74
C       3.44      21.52      18.66
C       3.80      22.88      18.61
C       2.60      25.99      17.38
C       1.46      26.41      16.67
C       0.20      26.49      17.30
C       0.12     -10.64      18.66
C       1.28     -11.00      19.37
C      23.21       1.65      31.69
C      22.15       1.43      30.79
C      21.02       2.27      30.81
C      20.85       3.30      31.79
C      21.97      21.93       0.78
C      23.13      21.12       0.75
C      19.56       4.13      31.80
C      19.80       5.01      30.55
C      20.88       5.93      30.53
C      21.28       6.60      29.36
C      20.55       6.48      28.16
C      19.42       5.63      28.18
C      19.09       4.87      29.33
C      18.31       3.23      31.80
C      19.30      23.37       1.21
C      18.55      24.58       1.13
C      18.09      25.25       2.28
C      18.42      24.80       3.59
C      19.18      23.62       3.67
C      19.54      22.88       2.52
C      18.34      20.27       0.44
C      17.20      19.44       0.43
C      15.94      19.94       0.05
C      15.86       2.93      31.52
C      17.02       3.73      31.48
C       6.91       8.71      15.08
C       6.19       7.78      15.88
C       4.96       8.19      16.50
C       4.68       9.58      16.62
C       5.51      10.54      15.96
C       6.51      10.08      15.04
C      22.65      26.91      16.56
C      21.93      -8.68      16.96
C      20.70      -8.36      16.30
C      20.42      27.81      15.03
C      21.25      26.76      14.53
C      22.25      26.20      15.39
C      14.78      19.09       0.05
C      14.06       0.48      30.68
C      12.83      -0.25      30.73
C      12.55      17.33       0.04
C      13.38      17.42       1.20
C      14.38      18.44       1.26
C      18.72       9.39      16.66
C      17.99      10.32      15.85
C      16.77       9.91      15.24
C      16.48       8.51      15.12
C      17.32       7.56      15.78
C      18.31       8.02      16.69
C      10.85      27.94      15.18
C      10.12      26.78      14.78
C       8.90      26.45      15.44
C       8.61      27.05      16.71
C       9.45      -8.66      17.20
C      10.44      -8.10      16.35
C       2.97      -0.99      31.68
C       2.25      17.62       1.06
C       1.03      18.35       1.01
C       0.74       0.77      31.70
C       1.58       0.68      30.54
C       2.57      -0.34      30.48
C       2.21      19.62      19.75
C       1.59      19.04      18.60
C       1.40      17.63      18.55
C       1.30      16.89      19.77
C       1.66      17.56      20.99
C       2.34      18.81      20.92
C      17.95      25.51       4.77
C      17.34      24.80       5.85
C      17.14      25.46       7.10
C      17.04      26.89       7.12
C      17.40      27.61       5.94
C      18.08      26.92       4.89
C      10.08       9.59       7.17
C       9.47      10.88       7.24
C       9.27      11.63       6.04
C       9.17      10.94       4.79
C       9.53       9.55       4.76
C      10.21       8.98       5.88
C      14.01      -1.52      11.99
C      13.40      -0.94      13.14
C      13.20       0.47      13.19
C      13.11       1.21      11.96
C      13.47       0.54      10.75
C      14.15      -0.71      10.82
C       6.14      -7.40      26.97
C       5.53      -6.70      25.89
C       5.33      -7.36      24.64
C       5.24      -8.79      24.61
C       5.60      -9.51      25.80
C       6.28      -8.82      26.85
C      21.89       8.51      24.57
C      21.27       7.22      24.50
C      21.08       6.47      25.70
C      20.98       7.16      26.95
C      21.34       8.55      26.98
C      22.02       9.12      25.86
H      21.44      11.06      23.76
H      22.20      12.17      21.82
H      23.36       7.53      22.51
H       0.30       8.57      20.45
H      23.13       9.12      17.69
H      21.23       8.48      16.46
H      18.90      11.24      18.62
H      20.84      11.98      19.77
H      22.27      13.43      18.34
H      22.79      15.72      18.53
H       2.45      14.77      21.01
H       1.77      12.51      21.03
H       2.30      10.02      20.49
H       0.60      11.59      16.97
H       2.51      10.90      15.73
H       4.22       9.35      19.26
H      13.57      -3.50      10.18
H      14.33      -5.73      10.19
H      15.49      -2.82      13.87
H      16.04      -5.12      13.99
H      15.26      -7.79      14.90
H      13.36      -8.54      16.07
H      11.03      28.72      12.60
H      12.97      29.34      11.38
H      14.40      27.38      10.84
H      14.92      26.40       8.76
H      18.19      29.02       8.34
H      17.51      30.17      10.29
H      18.04      -5.81      12.72
H      16.34      27.11      13.12
H      18.25      26.39      14.33
H      19.96      -6.55      13.91
H       5.70      -7.98      29.58
H       6.46      -6.85      31.51
H       7.62      -5.13      27.15
H       8.17      -3.87      29.08
H       7.39      -1.75      30.93
H       5.49      -0.37      31.00
H       3.16      14.76       0.47
H       5.10      13.39       0.54
H       6.53      13.91       2.51
H       7.05      12.60       4.40
H      10.32      10.93       2.34
H       9.64      12.04       0.37
H      10.17      -4.62      30.31
H       8.47      16.02       1.60
H      10.38      17.43       1.62
H      12.09      -3.23      30.35
H       9.63       7.04       7.98
H      10.39       5.93       9.91
H      11.56      10.57       9.23
H      12.10       9.53      11.29
H      11.33       8.98      14.05
H       9.43       9.62      15.28
H       7.09       6.86      13.11
H       9.03       6.12      11.97
H      10.47       4.67      13.40
H      10.98       2.38      13.21
H      14.25       3.33      10.73
H      13.58       5.59      10.70
H      14.11       8.08      11.25
H      12.41       6.51      14.77
H      14.32       7.20      16.00
H      16.03       8.75      12.48
H       1.76      21.60      21.55
H       2.52      23.83      21.54
H       3.69      20.92      17.87
H       4.23      23.22      17.75
H       3.46      25.88      16.84
H       1.55      26.63      15.67
H      22.83     -10.62      19.14
H       1.16     -11.24      20.36
H       2.60      -9.28      20.89
H       3.11      -8.30      22.98
H       6.38     -10.92      23.40
H       5.71     -12.07      21.45
H       6.24      23.91      19.02
H       4.53      -9.01      18.61
H       6.45      -8.29      17.40
H       8.16      24.65      17.83
H      17.50      26.08       2.16
H      18.26      24.95       0.23
H      19.43      23.23       4.59
H      19.97      21.97       2.66
H      19.20      19.85       0.81
H      17.30      18.47       0.74
H      14.96       3.34      31.27
H      16.90       4.71      31.20
H      18.34       4.19      29.23
H      18.86       5.50      27.34
H      22.12       7.18      29.40
H      21.45       6.06      31.37
H      21.98      22.72       1.42
H      20.28       2.08      30.14
H      22.19       0.67      30.11
H       0.29      21.33       1.38
H       4.15       6.32      16.69
H       3.18       7.50      17.26
H       7.56       6.25      15.81
H       6.30       5.94      16.80
H       4.79      12.21      16.92
H       6.05      12.52      15.94
H       7.61      10.63      13.41
H       6.65      11.82      13.96
H      19.89      -7.26      17.83
H      18.92      -7.36      16.52
H      23.30      -7.98      18.33
H      22.04      -6.97      18.09
H      20.53      26.76      12.61
H      21.79      25.75      12.83
H      23.35      24.51      15.74
H      22.38      24.39      14.44
H      12.02       0.52      29.01
H      11.05      -0.56      29.75
H      15.43       1.31      29.39
H      14.17       0.61      28.63
H      12.66      15.75       2.15
H      13.93      16.45       2.91
H      15.49      19.59       2.55
H      14.52      18.51       3.30
H      15.96      11.78      15.05
H      14.99      10.60      14.49
H      19.36      11.85      15.93
H      18.10      12.15      14.94
H      16.59       5.89      14.82
H      17.86       5.58      15.80
H      19.42       7.47      18.33
H      18.45       6.28      17.78
H       8.08      25.35      13.92
H       7.12      25.45      15.22
H      11.49      26.08      13.41
H      10.23      25.07      13.64
H       8.72      -8.66      19.13
H       9.99      -7.66      18.91
H      11.55      -6.41      16.00
H      10.58      -6.29      17.31
H       0.21      17.58       2.72
H      22.86      18.66       1.98
H       3.62      16.79       2.35
H       2.36      17.49       3.10
H       0.85       2.35      29.58
H       2.12       1.65      28.82
H       3.68      -1.49      29.19
H       2.70      -0.42      28.44
H       1.60      17.47      16.52
H       1.42      16.03      17.27
H       1.10      20.78      17.64
H       0.59      19.44      16.86
H       0.71      16.29      22.28
H       1.41      17.57      23.01
H       3.76      19.94      21.87
H       3.38      18.57      22.67
H      17.34      23.79       8.25
H      17.16      25.16       9.12
H      16.84      23.10       4.82
H      16.33      23.09       6.37
H      16.46      29.37       6.40
H      17.16      29.37       4.92
H      19.50      27.18       3.43
H      19.12      28.56       4.22
H       9.46      13.47       6.92
H       9.28      13.54       5.30
H       8.98      10.84       9.23
H       8.46      12.19       8.45
H       8.59       9.07       3.01
H       9.29       7.79       3.75
H      11.63       7.60       6.38
H      11.25       7.59       4.80
H      13.41       0.63      15.22
H      13.23       2.07      14.46
H      12.91      -2.68      14.10
H      12.40      -1.34      14.88
H      12.53       1.82       9.45
H      13.23       0.54       8.72
H      15.57      -1.84       9.87
H      15.19      -0.47       9.08
H       5.53      -5.68      23.49
H       5.36      -7.06      22.62
H       5.04      -5.00      26.91
H       4.53      -4.99      25.36
H       4.65     -11.26      25.34
H       5.35     -11.26      26.82
H       7.70      -9.08      28.30
H       7.31     -10.46      27.52
H      21.28       4.64      24.82
H      21.10       4.57      26.44
H      20.78       7.26      22.52
H      20.27       5.92      23.28
H      20.40       9.03      28.73
H      21.10      10.31      27.99
H      23.44      10.51      25.36
H      23.05      10.51      26.94
N       4.06       7.25      16.93
N       6.68       6.52      16.11
N       5.38      11.88      16.23
N       7.04      10.94      14.12
N      19.80      -7.51      16.89
N      22.42      -7.85      17.94
N      21.12      26.33      13.24
N      22.78      24.97      15.11
N      11.93      -0.16      29.70
N      14.55       0.91      29.47
N      13.25      16.52       2.22
N      14.90      18.81       2.46
N      15.87      10.85      14.80
N      18.48      11.58      15.62
N      17.19       6.22      15.51
N      18.84       7.16      17.62
N       8.00      25.61      14.84
N      10.61      25.95      13.80
N       9.32      -8.23      18.50
N      10.97      -6.87      16.63
N       0.13      18.26       2.04
N       2.74      17.18       2.26
N       1.45       1.58      29.52
N       3.10      -0.71      29.27
N       1.36      17.00      17.34
N       1.15      19.82      17.56
N       1.33      17.03      22.21
N       3.15      19.19      21.96
N      17.10      24.73       8.25
N      16.89      23.51       5.70
N      17.07      28.93       5.78
N      18.89      27.63       4.04
N       9.23      13.00       6.10
N       9.02      11.39       8.43
N       9.20       8.76       3.70
N      11.02       7.90       5.69
N      13.16       1.10      14.40
N      12.96      -1.71      14.18
N      13.13       1.06       9.53
N      14.96      -1.09       9.78
N       5.29      -6.63      23.48
N       5.08      -5.41      26.04
N       5.27     -10.83      25.95
N       7.09      -9.53      27.69
N      21.04       5.10      25.64
N      20.83       6.71      23.31
N      21.00       9.34      28.04
N      22.83      10.21      26.05
