136

Eu       6.76       1.47       9.60
Eu       7.84      12.01       7.39
Eu       2.97       0.27       1.11
Eu      11.61      13.20      15.89
Ag      10.89       5.64      15.62
Ag       3.69       7.81       1.37
Ag       6.02       9.02       9.87
Ag       8.56       4.45       7.12
H      11.52       8.46      10.55
H      12.26       7.51       6.27
H       3.06       5.01       6.45
H       3.84       5.20      14.14
H      10.73       8.27       2.85
H       7.40       4.77       2.23
H       5.90       4.01       5.65
H       7.89       7.26       2.06
H       8.70       3.19       0.79
H       0.70       2.67      11.34
H       3.86       9.08       7.71
H       9.60      10.86      13.19
H       9.02       1.47       2.83
H       8.68       9.46      11.34
H       4.98       2.62       3.80
H       9.83       9.67       4.71
H       9.64       4.04      13.30
H       2.32       5.97      10.72
H       8.42       7.51       7.74
H       6.68       6.19      14.95
H       5.88      10.26      16.20
H      11.02       8.70      16.24
H      13.88      10.80       5.65
H      10.72       4.40       9.28
H       4.94       9.43       3.69
H       6.16       5.98       9.26
H       5.55      12.00      14.16
H       9.79       2.84       4.79
H       7.18       8.69      14.77
H       4.78      10.64      12.20
H       4.75       3.80      12.29
H       3.55       4.76       0.76
C       7.34      10.92       4.35
C       2.80       3.11      11.67
C      10.52       5.46       9.27
C       3.68       3.85      12.47
C       9.72       1.94       8.26
C       6.38       1.05       2.07
C       6.05       2.66       3.98
C       4.36       5.07       0.10
C      13.58       9.49       3.97
C       4.06       8.02       7.72
C       9.75       3.12      16.75
C      11.40       8.85       3.49
C      10.90       9.62       4.53
C       9.48       6.95       0.65
C       4.82      10.35       0.26
C       7.25       2.56      12.65
C       5.09       6.51      16.35
C      11.24       6.35      10.07
C      13.16      10.26       5.04
C       8.30       2.02       3.45
C       8.53      10.81      13.02
C       1.43       3.21      11.95
C       8.02      10.04      11.98
C       6.40       8.30      15.42
C       6.56       3.43       5.02
C      11.25      11.24       6.43
C       8.74       2.78       4.52
C       4.88      11.55       8.76
C       5.01       3.87       7.99
C       8.19      12.43      14.93
C      12.09      12.12      12.84
C       9.83       8.41       0.51
C      10.22       8.38      16.90
C       3.18       4.62      13.51
C       4.66       5.33       7.86
C      11.79      10.35       5.32
C       9.23       7.19       8.40
C       6.93       1.93       3.18
C       5.84      10.69      12.47
C       8.17       5.15       1.57
C       3.62       5.76       7.02
C       4.73       5.06      16.48
C       5.35       6.29       8.60
C       8.90       4.26       0.78
C       6.13       6.94      15.51
C       3.34       7.12       6.93
C      10.96       7.72       9.98
C       5.68       9.19      16.21
C       2.49       1.36       4.16
C       3.34       2.23      10.57
C       6.28      11.46      13.55
C       8.45       6.52       1.49
C       7.65      11.55      13.82
C       9.57       9.61       9.01
C       9.92       8.15       9.14
C       0.99       3.98      13.02
N       1.86       4.68      13.80
N       4.65       6.39       0.05
N       7.88       3.48       5.30
N      12.72       8.79       3.19
N       6.70       9.99      11.69
N       9.53       5.88       8.44
N       9.92       7.07      16.95
N       5.05       7.60       8.55
O       2.65       2.08       5.18
O       0.91       1.46       0.26
O       2.51       1.71       9.77
O       8.90       3.48      15.90
O       9.45      12.58      14.94
O       6.17       3.60       8.43
O       7.11       3.28      13.68
O       0.88       2.29       7.41
O       4.60       2.09      10.55
O       7.21      10.49       5.54
O       5.76      10.81       8.23
O      13.67      11.99      16.74
O       5.62       4.23      16.13
O       7.38       2.99      11.46
O       3.57       4.79      16.93
O       2.31       1.78       2.97
O       5.12       0.90       2.06
O       8.82       2.67       8.76
O       7.36      12.93      15.74
O      10.45      10.43       9.37
O       8.41       9.88       8.56
O       4.13       3.05       7.63
O      13.75      11.21       9.63
O       5.66      10.01       1.13
O       8.95       9.23       0.87
O      11.92      11.40      11.82
O       7.47      10.20       3.32
O       7.21       0.54       1.26
O       9.99      11.39       6.45
O      10.99       8.68       0.07
O      12.26      11.70      14.02
O      12.09      11.74       7.24
