36

H       6.87       0.51      18.15
H       6.14      -0.10      13.85
H       5.97       1.63       9.99
H       5.54       5.34      13.01
H       6.87       1.92      20.10
H       6.75       4.15      21.13
H       5.93       5.93      17.34
H       6.73       0.19      15.80
H       5.62       5.65      15.33
C       5.98      -0.69      11.32
C       6.31       5.16      19.27
C       6.04       0.65      11.89
C       6.65       2.78      19.48
C       6.58       4.04      20.06
C       6.11       5.02      17.89
C       6.21       3.75      17.27
C       6.49       2.63      18.09
C       6.08       3.57      15.85
C       6.24       2.26      15.29
C       6.53       1.19      16.15
C       6.64       1.37      17.52
C       5.81       4.64      14.98
C       5.78       4.48      13.60
C       5.99       3.22      13.02
C       6.13       2.08      13.87
C       5.99       3.06      11.60
C       5.99       1.77      11.06
C       6.13       0.80      13.27
C       6.35       6.49      19.86
N       6.04       4.19      10.70
O       4.78      -1.16      11.07
O       7.14      -1.30      11.15
O       5.21       7.11      20.04
O       7.54       6.97      20.11
O       5.56       4.08       9.50
O       6.77       5.23      10.98
