22

H       0.68       9.62      14.23
H       0.87       8.91      16.57
H       5.36      10.42      14.18
H       5.43      12.23      14.67
C       2.47      11.12      12.79
C       3.54      11.23      15.06
C       2.52      10.76      14.22
C       1.51       9.98      14.82
C       1.61       9.58      16.17
C       2.70       9.98      16.98
C       3.62      10.87      16.41
C       5.11      10.81      16.35
C       5.03      11.22      14.88
C       2.79       9.54      18.39
N       5.75      11.81      17.21
O       3.61      11.36      12.18
O       1.27      11.21      12.24
O       3.99       9.46      18.94
O       1.66       9.31      19.00
O       5.32      13.04      17.23
O       6.74      11.46      17.98
F       5.59       9.53      16.54
