36

H       1.87       8.26       2.64
H       2.49       8.91       6.94
H       2.53       7.20      10.82
H       3.20       3.49       7.83
H       2.04       6.86       0.68
H       2.33       4.66      -0.34
H       3.01       2.89       3.47
H       1.92       8.59       4.99
H       3.21       3.18       5.51
C       2.46       9.51       9.48
C       2.70       3.66       1.53
C       2.52       8.17       8.91
C       2.26       6.02       1.32
C       2.43       4.77       0.73
C       2.82       3.80       2.92
C       2.64       5.05       3.54
C       2.35       6.17       2.71
C       2.71       5.24       4.96
C       2.49       6.54       5.52
C       2.17       7.60       4.64
C       2.12       7.42       3.27
C       2.98       4.17       5.84
C       2.96       4.35       7.22
C       2.70       5.60       7.79
C       2.55       6.73       6.94
C       2.64       5.76       9.21
C       2.57       7.05       9.74
C       2.50       8.01       7.53
C       2.78       2.33       0.94
N       2.62       4.64      10.11
O       1.25       9.99       9.72
O       3.62      10.13       9.64
O       1.64       1.72       0.75
O       3.97       1.86       0.67
O       3.08       4.77      11.32
O       1.92       3.58       9.83
