22

La       1.45      11.92      24.96
La      -2.77      12.30      26.09
O       2.83      11.79      22.95
O       0.75      10.96      22.82
O       5.02      14.61      25.45
O       3.07      13.54      25.67
O      -2.17      10.22      27.48
O      -0.40      11.09      26.47
O      -4.16      12.44      28.10
O      -2.08      13.26      28.22
O       2.21       9.62      25.59
O      -4.39      10.69      25.38
C       1.91      11.17      22.30
C       2.26      10.69      20.92
O       0.85      14.00      23.56
O      -0.93      13.14      24.58
C       3.75      14.60      25.41
C      -0.95      10.19      27.24
C      -3.23      13.05      28.75
C      -3.58      13.54      30.13
C       3.48       9.62      25.64
C      -0.38      14.03      23.81
