153

Cu       2.14       8.89      10.30
Cu       0.02       8.10       9.38
Cu       8.54       9.71       4.73
Cu       8.03       9.13       2.41
Cu       8.54       3.26      10.30
Cu       8.03       1.05       9.38
H       1.41       8.75      14.45
H       0.62       8.46      16.78
H      -3.11       6.89      15.34
H      -2.31       7.21      12.98
H       2.53       9.65       1.04
H       3.83       9.42       2.48
H       8.50      13.93       4.61
H       8.32      16.36       4.14
H       7.23      15.50       0.06
H       7.44      13.04       0.54
H       9.25       0.48       3.85
H       8.85       1.73       5.31
H      12.73       3.06      10.77
H      15.16       2.58      10.83
H      14.45      -1.27       9.06
H      11.99      -0.79       9.03
H      -0.70       2.46       9.70
H       0.58       3.94       9.68
H       1.41      13.02      10.77
H       0.62      15.37      10.83
H      -3.11      14.17       9.06
H      -2.31      11.79       9.03
H       2.53      -0.38       9.70
H       3.83       1.08       9.68
H       8.50       2.52      14.45
H       8.31       1.70      16.78
H       7.23      -2.20      15.34
H       7.44      -1.37      12.98
H       9.25       3.74       1.04
H       8.85       5.00       2.48
H      12.73      10.21       4.61
H      15.16      10.33       4.14
H      14.45       9.15       0.06
H      11.99       9.05       0.54
H      -0.70       9.24       3.85
H       0.58       9.00       5.31
H       4.64       9.19       6.69
H       8.53       5.77       6.69
H       4.63       5.27      10.07
C       0.11       8.13      12.18
C      -0.39       7.97      13.57
C       0.43       8.33      14.65
C      -0.01       8.15      15.96
C      -1.28       7.60      16.22
C      -2.12       7.29      15.13
C      -1.68       7.46      13.82
C       0.53       9.91       0.30
C       1.48       9.67       1.31
C       3.44       9.33       3.49
C       4.36       9.29       4.54
C       5.82       9.35       4.22
C       8.05      11.88       2.92
C       7.96      13.34       2.61
C       8.21      14.28       3.62
C       8.09      15.64       3.35
C       7.71      16.09       2.07
C       7.50      15.14       1.06
C       7.62      13.78       1.32
C       9.76       0.04       1.81
C       9.41       0.90       2.86
C       8.81       2.78       5.06
C       8.66       3.69       6.11
C       8.53       3.16       7.50
C      10.76       1.50       9.83
C      12.21       1.18       9.87
C      13.11       2.12      10.39
C      14.48       1.85      10.40
C      14.97       0.63       9.89
C      14.06      -0.33       9.42
C      12.69      -0.06       9.41
C      -1.21       0.38       9.84
C      -0.31       1.45       9.76
C       1.63       3.67       9.74
C       2.55       4.72       9.85
C       2.04       6.13       9.87
C       0.11      10.86       9.83
C      -0.39      12.26       9.87
C       0.43      13.28      10.39
C      -0.01      14.60      10.40
C      -1.28      14.93       9.89
C      -2.12      13.91       9.42
C      -1.68      12.58       9.41
C       0.53      -1.15       9.84
C       1.48      -0.12       9.76
C       3.43       2.09       9.74
C       4.36       3.13       9.85
C       5.82       2.81       9.87
C       8.05       1.15      12.18
C       7.96       0.63      13.57
C       8.21       1.49      14.65
C       8.09       1.03      15.96
C       7.70      -0.30      16.22
C       7.50      -1.17      15.13
C       7.61      -0.71      13.82
C       9.76       1.79       0.30
C       9.41       2.70       1.31
C       8.82       4.60       3.49
C       8.66       5.51       4.54
C       8.53       6.96       4.22
C      10.76       9.50       2.92
C      12.21       9.59       2.61
C      13.11       9.96       3.62
C      14.48      10.02       3.35
C      14.98       9.70       2.07
C      14.06       9.37       1.06
C      12.70       9.31       1.32
C      -1.21       9.68       1.81
C      -0.31       9.44       2.86
C       1.63       9.10       5.06
C       2.55       9.06       6.11
C       2.04       8.86       7.50
C       1.07       9.45       2.63
C       2.05       9.28       3.73
C       3.92       9.19       5.87
C       9.24       2.27       2.63
C       8.94       3.22       3.73
C       8.62       5.06       5.87
C       1.07       1.22       9.73
C       2.05       2.34       9.72
C       3.92       4.46       9.95
N      -0.80       9.90       0.54
N       9.92       0.47       0.54
N      -0.80      -0.91       9.87
O       1.32       8.56      12.06
O      -0.67       7.83      11.21
O       6.14       9.10       3.01
O       6.62       9.63       5.18
O       8.32      11.58       4.14
O       7.85      11.05       1.97
O       8.24       1.91       7.61
O       8.71       3.98       8.47
O      10.42       2.67      10.23
O       9.95       0.61       9.38
O       0.84       6.30       9.44
O       2.84       7.04      10.29
O       1.32      10.68      10.23
O      -0.67       9.95       9.38
O       6.14       1.64       9.44
O       6.62       3.71      10.29
O       8.32       2.40      12.06
O       7.85       0.33      11.21
O       8.24       7.25       3.01
O       8.71       7.79       5.18
O      10.42       9.73       4.14
O       9.95       9.19       1.97
O       0.84       8.42       7.61
O       2.84       9.15       8.47
