13

C       6.72      13.53      10.96
C       8.26      17.04      15.04
Zn       6.50      15.79      12.96
C       4.38      14.33      14.38
N       5.10      15.48      14.36
C       4.65      16.21      15.45
N       7.00      14.02      12.18
N       8.18      16.45      13.83
C       7.78      13.06      12.81
N       5.69      17.01      11.61
C       9.48      16.31      13.39
C       6.06      17.27      10.34
C       4.55      17.77      11.83
