13

C       3.62       6.54      14.70
C       5.13       6.03      13.21
Zn       3.18       8.01      12.08
N       4.58       8.33      10.68
N       2.68       9.78      12.87
N       1.50       7.35      11.21
N       3.99       6.80      13.43
C       5.30       9.47      10.67
C       5.03       7.59       9.60
C       2.96      10.28      14.09
C       1.90      10.74      12.24
C       1.42       6.76      10.00
C       0.20       7.49      11.65
