13

Zn       7.17       0.15       6.87
N       7.60       1.75       8.01
N       5.88       0.84       5.51
C       6.12      -2.61       7.31
N       8.88      -0.36       5.95
C       6.75      -1.75       9.21
C       8.50       2.68       7.64
C       6.92       2.30       9.09
C       4.63       0.40       5.24
C       6.12       1.87       4.62
C       9.55       0.35       5.02
N       6.56      -1.46       7.87
C       9.70      -1.45       6.24
