13

N       7.24      -0.21      23.28
N       8.35      -3.01      22.16
Zn       7.38      -1.32      21.64
C       5.05      -1.02      19.81
C       4.68      -2.64      21.23
N       5.61      -1.70      20.82
C       9.22      -3.05      23.19
N       8.63      -0.42      20.35
C       8.51      -4.20      21.48
C       9.81      -0.97      20.02
C       8.53       0.73      19.58
C       7.80       1.00      23.48
C       6.57      -0.51      24.46
