13

N       1.33       2.39       2.88
Zn       2.30       0.70       3.41
N       4.06       1.08       4.22
N       2.44      -0.41       1.76
N       1.05      -0.20       4.69
C       4.63       0.40       5.24
C       5.00       2.02       3.82
C       1.88      -1.62       1.57
C       0.46       2.43       1.86
C       3.11      -0.11       0.59
C       1.17       3.58       3.57
C      -0.13       0.35       5.02
C       1.15      -1.35       5.46
