13

C       3.56       1.99      17.73
C       2.93       1.13      15.83
Zn       2.51      -0.77      18.17
C       1.18      -3.29      17.41
C       2.76      -2.92      15.95
C       5.05      -1.02      19.81
N       2.08      -2.37      17.03
N       3.80      -1.46      19.53
C       3.56      -2.49      20.43
N       0.80      -0.26      19.09
C       0.13      -0.97      20.02
C      -0.02       0.83      18.81
N       3.12       0.84      17.18
