184

La       1.45      11.92      24.96
La       2.15       0.17      12.19
La       6.44       0.19       0.56
La       5.74      11.94      13.34
H       3.22      10.15      20.96
H       2.41      11.55      20.25
H       0.71       8.48      21.87
H       7.41       6.87      17.67
H       4.15       3.22      17.86
H       4.82       4.30      19.96
H       7.22       7.24      21.96
H       3.97       3.64      22.25
H       2.67       3.50      24.62
H       3.50       4.36       0.45
H       3.20       3.56      14.22
H       2.85       2.56      15.64
H       0.38       1.96       8.19
H       1.19       0.57       7.46
H       2.90       3.63       9.11
H       4.75       5.25       4.90
H       8.00       8.91       5.11
H       7.35       7.81       7.19
H       4.95       4.87       9.19
H      -0.35       8.47       9.49
H       0.94       8.61      11.87
H       0.14       7.78      13.21
H       0.42       8.57       1.46
H       0.76       9.56       2.88
H       4.67       1.96       4.56
H       5.48       0.57       5.27
H       7.18       3.64       3.65
H       0.48       5.24       7.86
H       3.74       8.90       7.66
H       3.07       7.81       5.56
H       0.67       4.87       3.56
H       3.92       8.48       3.27
H       5.22       8.61       0.90
H       4.39       7.75      25.07
H       4.69       8.56      11.30
H       5.03       9.55       9.88
H       7.51      10.15      17.33
H       6.70      11.54      18.06
H       4.99       8.48      16.41
H       3.14       6.86      20.62
H      -0.11       3.21      20.42
H       0.54       4.31      18.33
H       2.94       7.24      16.33
H       8.24       3.64      16.03
H       6.95       3.50      13.66
H       7.75       4.34      12.31
H       7.47       3.55      24.06
H       7.13       2.55      22.64
C       1.91      11.17      22.30
C       2.26      10.69      20.92
C      -0.14       8.26      19.78
C       0.60       8.78      20.84
C       7.46       7.16      19.81
C       7.03       6.53      18.63
C       6.07       5.50      18.67
C       5.54       4.96      17.43
C       4.65       3.91      17.20
C       5.58       5.08      19.92
C       6.00       5.70      21.10
C       6.93       6.74      21.04
C       5.45       5.35      22.41
C       4.54       4.38      22.79
C       4.39       2.45      25.41
C       3.65       3.72      25.06
C       4.54       1.90      14.47
C       3.67       3.00      15.05
C       1.68       0.90       9.52
C       1.34       1.42       8.14
C       3.75       3.85       7.02
C       3.01       3.33       8.08
C       4.71       4.95       7.04
C       5.13       5.58       5.86
C       6.09       6.61       5.91
C       6.62       7.17       4.66
C       7.51       8.21       4.44
C       6.59       7.03       7.15
C       6.17       6.40       8.34
C       5.23       5.36       8.27
C       6.72       6.76       9.65
C       7.63       7.73      10.03
C       7.76       9.65      12.67
C      -0.03       8.38      12.31
C       7.62      10.23       1.71
C      -0.05       9.12       2.29
C       5.98       0.94       3.22
C       5.63       1.43       4.61
C       8.03       3.85       5.74
C       7.28       3.34       4.69
C       0.43       4.95       5.72
C       0.86       5.58       6.90
C       1.82       6.61       6.85
C       2.35       7.16       8.10
C       3.24       8.20       8.32
C       2.31       7.03       5.60
C       1.89       6.41       4.42
C       0.96       5.37       4.49
C       2.44       6.77       3.11
C       3.35       7.73       2.73
C       3.50       9.66       0.11
C       4.24       8.39       0.46
C       3.35      10.22      11.05
C       4.22       9.11      10.48
C       6.21      11.21      16.01
C       6.55      10.70      17.38
C       4.14       8.27      18.50
C       4.88       8.78      17.45
C       3.18       7.16      18.48
C       2.76       6.54      19.66
C       1.80       5.50      19.61
C       1.27       4.95      20.86
C       0.38       3.90      21.08
C       1.30       5.08      18.37
C       1.72       5.71      17.19
C       2.65       6.75      17.25
C       1.17       5.35      15.88
C       0.26       4.38      15.49
C       0.12       2.47      12.85
C       7.92       3.74      13.22
C       0.26       1.88      23.81
C       7.94       2.99      23.23
N       1.27       9.83      20.30
N       0.99       9.97      18.98
N       0.14       9.01      18.67
N       5.82       5.53      16.20
N       5.16       4.91      15.26
N       4.43       3.92      15.86
N       4.40       4.54      24.14
N       5.20       5.54      24.59
N       5.83       6.04      23.55
N       2.34       2.28       7.54
N       2.63       2.14       6.22
N       3.48       3.10       5.91
N       6.34       6.60       3.44
N       7.00       7.22       2.49
N       7.73       8.20       3.10
N       7.76       7.56      11.38
N       6.96       6.56      11.83
N       6.34       6.07      10.78
N       6.62       2.28       5.22
N       6.90       2.15       6.55
N       7.75       3.11       6.86
N       2.07       6.58       9.32
N       2.73       7.21      10.27
N       3.46       8.19       9.66
N       3.48       7.57       1.38
N       2.69       6.57       0.93
N       2.06       6.08       1.98
N       5.55       9.84      17.98
N       5.26       9.97      19.31
N       4.41       9.01      19.62
N       1.55       5.51      22.09
N       0.89       4.89      23.03
N       0.16       3.91      22.42
N       0.13       4.55      14.14
N       0.92       5.56      13.70
N       1.55       6.05      14.74
O       2.83      11.79      22.95
O       0.75      10.96      22.82
O       5.66       2.45      25.45
O       3.73       1.43       0.14
O       5.77       1.87      14.72
O       3.99       1.00      13.70
O       0.77       0.25      10.13
O       2.82       1.13      10.06
O       6.50       9.64      12.69
O      -0.11      10.71      12.96
O       6.40      10.26       1.96
O      -0.38      11.13       0.94
O       5.06       0.33       2.58
O       7.13       1.15       2.70
O       2.23       9.66       0.07
O       4.16      10.69      25.38
O       2.12      10.25      10.80
O       3.89      11.12      11.82
O       7.12      11.86      15.39
O       5.07      10.98      15.46
O       1.39       2.47      12.83
O       8.00       1.41      12.56
O       1.49       1.85      23.56
O       8.27       0.98      24.58
