13

C       0.67       3.97       8.06
C       0.88       4.93       9.05
C       2.13       5.53       9.17
C      -0.72       3.39       7.94
H       3.65       3.99       6.74
H       1.55       2.97       6.52
H       0.18       5.16       9.64
H       2.27       6.18       9.85
O      -0.84       2.45       7.12
O      -1.60       3.76       8.65
C       1.70       3.62       7.19
C       2.95       4.22       7.32
N       3.16       5.17       8.31
