13

N       3.66       8.37      14.87
H       3.17       9.56      16.44
H       5.27      10.57      16.66
H       6.64       8.38      13.54
H       4.55       7.37      13.33
O       7.66      11.09      16.05
O       8.42       9.79      14.52
C       3.87       9.32      15.85
C       5.12       9.92      15.98
C       6.15       9.57      15.12
C       5.94       8.62      14.13
C       4.69       8.02      14.00
C       7.54      10.16      15.24
