13

N       9.00       5.96       8.85
C      10.19       6.51       8.37
C      11.33       5.73       8.28
H      10.21       7.43       8.11
C      11.30       4.40       8.67
H      12.14       6.11       7.95
C       8.97       4.62       9.24
C      10.11       3.84       9.15
H       8.16       4.25       9.56
C      12.50       3.59       8.52
H      10.09       2.93       9.41
O      13.59       4.10       8.21
O      12.48       2.32       8.74
