13

C       6.24      10.78      11.53
C       5.92      11.79      12.43
C       4.61      11.95      12.86
N       5.25       9.94      11.05
C       3.93      10.10      11.47
C       3.61      11.10      12.38
C       4.22      13.13      13.80
O       5.17      13.86      14.15
O       3.04      13.30      14.04
H       7.14      10.67      11.24
H       6.60      12.37      12.76
H       2.71      11.21      12.67
H       3.25       9.52      11.15
