13

H       3.39      -6.12      15.07
H       5.32      -7.43      15.22
H       3.27     -10.61      13.77
H       1.34      -9.30      13.61
N       2.18      -7.59      14.33
O       6.77      -9.44      14.96
C       3.36      -7.03      14.81
C       4.51      -7.81      14.89
C       4.47      -9.15      14.51
C       3.29      -9.70      14.03
C       2.14      -8.92      13.94
C       5.68      -9.96      14.66
O       5.66     -11.22      14.44
