13

C      15.18      -4.22       7.32
C      16.43      -3.62       7.19
C      17.46      -3.97       8.06
C      17.25      -4.93       9.05
C      16.00      -5.53       9.17
C      18.85      -3.39       7.94
O      18.97      -2.45       7.12
O      19.73      -3.76       8.65
H      14.48      -3.99       6.74
H      16.58      -2.97       6.52
H      17.95      -5.16       9.64
H      15.86      -6.18       9.85
N      14.97      -5.17       8.31
