13

N       1.00       4.28      17.90
C      -0.13       4.46      18.69
C      -0.34       3.65      19.79
C       0.58       2.65      20.11
C       1.71       2.48      19.32
C       1.92       3.29      18.21
C       0.36       1.80      21.22
O       1.38       1.05      21.69
O      -0.86       1.76      21.76
H      -0.76       5.14      18.47
H      -1.11       3.77      20.33
H       2.34       1.80      19.54
H       2.70       3.17      17.67
