13

N       8.76      24.16       2.95
C      10.09      24.51       3.14
C      10.44      25.42       4.13
C       9.45      25.99       4.93
H      10.77      24.12       2.60
H      11.35      25.65       4.26
C       7.77      24.73       3.75
C       8.12      25.64       4.73
H       6.86      24.50       3.61
C       9.79      27.08       5.96
H       7.45      26.03       5.28
O      10.96      27.25       6.24
O       8.78      27.68       6.47
