13

H       3.95      10.57      20.58
H       4.53      12.11      18.92
H       0.63      12.49      17.90
H       0.04      10.95      19.57
N       1.94      10.62      20.23
O       4.14      13.71      16.93
O       1.96      14.13      16.71
C       3.27      10.96      20.04
C       3.62      11.87      19.05
C       2.63      12.44      18.25
C       1.30      12.10      18.44
C       0.95      11.19      19.43
C       2.97      13.53      17.22
