240

C      -4.59      10.39       7.75
C      -4.40       9.19       8.73
C      -3.25      10.58       6.95
C      -2.01      10.84       7.90
C      -1.91       9.61       8.86
C      -3.20       9.41       9.72
C      -3.47      10.74      10.51
C      -3.64      11.99       9.56
C      -2.32      12.13       8.73
C      -4.84      11.67       8.61
C      12.23       0.07       9.58
C      11.93       1.35       8.73
C      12.35      -1.15       8.60
C      11.04      -1.35       7.73
C      10.80      -0.03       6.94
C      10.63       1.21       7.88
C       9.44       0.91       8.86
C       9.68      -0.39       9.73
C       9.85      -1.59       8.73
C      11.01      -0.17      10.52
C       9.99       8.72       4.73
C      10.18       8.47       3.19
C      11.33       9.31       5.30
C      12.57       8.36       5.04
C      12.67       8.15       3.49
C      11.38       7.50       2.89
C      11.12       6.15       3.64
C      10.94       6.34       5.21
C      12.26       7.00       5.74
C       9.74       7.33       5.41
C      -2.35       1.98      12.73
C      -2.65       2.07      14.27
C      -2.23       3.44      12.17
C      -3.54       4.29      12.42
C      -3.78       4.31      13.97
C      -3.96       2.88      14.57
C      -5.15       2.18      13.82
C      -4.90       2.08      12.26
C      -4.73       3.54      11.72
C      -3.57       1.28      12.05
C       2.70      12.17       4.79
C       2.89      13.62       5.34
C       4.04      11.38       5.02
C       5.28      12.08       4.33
C       5.38      13.52       4.91
C       4.09      14.37       4.65
C       3.82      14.39       3.11
C       3.65      12.94       2.49
C       4.97      12.15       2.79
C       2.45      12.27       3.25
C       4.94      -1.71      12.81
C       4.64      -3.08      12.12
C       5.06      -1.94      14.36
C       3.75      -2.59      14.97
C       3.51      -3.94      14.21
C       3.33      -3.75      12.67
C       2.14      -2.75      12.44
C       2.39      -1.34      13.13
C       2.56      -1.61      14.67
C       3.72      -0.77      12.55
C      -3.92      13.27      10.31
C       3.22      -6.33      12.49
C       3.14      -5.04      11.93
C      -4.11      14.57       9.74
C      -4.12      14.88       8.48
C       8.55      -0.68      10.70
C       6.35      -0.03      11.41
C       6.23      -1.18      12.22
C       8.47      -1.78      11.60
C       9.36      -2.71      11.79
C      11.14      -2.51       6.76
C       5.20      16.25       6.05
C       4.16      15.75       5.24
C      10.13      -2.95       5.86
C       8.95      -2.43       5.67
C      -0.71      11.00       7.15
C       0.30      11.19       4.97
C       1.54      11.55       5.53
C       0.58      11.25       7.72
C       0.87      11.35       8.98
C      10.66       5.05       5.94
C      10.51       2.66       5.73
C      10.43       2.50       7.13
C      10.47       4.90       7.35
C      10.46       5.84       8.25
C      -6.03       1.39      11.52
C      13.64       0.44      11.73
C      13.52       0.31      10.33
C      -6.11       1.15      10.11
C      -5.22       1.46       9.22
C      -3.44       5.71      11.90
C      -2.09       7.26      10.65
C      -3.13       8.21      10.62
C      -4.45       6.71      11.97
C      -5.63       6.61      12.52
C      13.87       8.93       5.56
C      -6.99      10.72       6.81
C      -5.75      10.05       6.84
C      15.16       8.31       5.49
C      15.45       7.17       4.94
C       3.37      12.95       1.01
C      -4.07       4.02      16.90
C      -4.15       2.88      16.06
C       3.18      11.81       0.17
C       3.17      10.56       0.53
C       1.26      -0.36      12.90
C      -0.94      -0.07      11.98
C      -1.07       1.21      12.57
C       1.18       0.97      13.40
C       2.07       1.60      14.12
C       3.85      -2.85      16.45
C      12.49       7.77       0.56
C      11.45       7.32       1.40
C       2.84      -3.42      17.29
C       1.66      -3.84      16.93
C       6.58      11.34       4.56
C       7.59       9.36       5.48
C       8.84       9.67       4.89
C       7.87      11.71       4.06
C       8.16      12.76       3.35
H      -3.37      11.43       6.26
H      -3.06       9.70       6.33
H      -1.72       8.71       8.25
H      -1.07       9.72       9.55
H      -4.22       8.26       8.18
H      -5.34       9.05       9.29
H      -2.63      10.91      11.20
H      -4.36      10.62      11.13
H      -1.51      12.36       9.43
H      -2.38      12.97       8.03
H      -5.74      11.56       9.21
H      -5.01      12.50       7.92
H      12.55      -2.05       9.18
H      13.20      -1.00       7.93
H      11.65       0.13       6.26
H       9.91      -0.10       6.32
H      12.77       1.57       8.05
H      11.86       2.21       9.41
H       8.51       0.80       8.28
H       9.29       1.77       9.53
H       8.91      -1.72       8.20
H      10.04      -2.52       9.26
H      10.87       0.68      11.20
H      11.24      -1.04      11.14
H      11.21       9.49       6.37
H      11.52      10.29       4.83
H      12.87       9.12       3.02
H      13.51       7.50       3.25
H      10.36       9.41       2.67
H       9.25       8.06       2.79
H      11.95       5.47       3.44
H      10.22       5.68       3.23
H      13.07       6.28       5.59
H      12.20       7.18       6.81
H       8.84       6.87       5.01
H       9.57       7.51       6.47
H      -2.03       3.38      11.09
H      -1.38       3.94      12.63
H      -2.93       4.82      14.44
H      -4.67       4.89      14.21
H      -1.82       2.56      14.79
H      -2.72       1.05      14.67
H      -6.07       2.74      14.02
H      -5.29       1.18      14.23
H      -5.67       4.07      11.87
H      -4.54       3.55      10.65
H      -3.71       0.27      12.45
H      -3.34       1.18      10.99
H       3.92      10.36       4.63
H       4.23      11.29       6.09
H       5.57      13.45       5.99
H       6.22      14.06       4.47
H       3.07      13.61       6.42
H       1.96      14.18       5.18
H       4.66      14.90       2.61
H       2.93      14.98       2.90
H       5.78      12.64       2.25
H       4.91      11.13       2.41
H       1.55      12.85       3.05
H       2.28      11.26       2.87
H       5.26      -0.99      14.85
H       5.91      -2.59      14.56
H       4.36      -4.61      14.42
H       2.62      -4.44      14.59
H       5.47      -3.78      12.28
H       4.57      -2.92      11.04
H       1.22      -3.20      12.83
H       2.00      -2.60      11.37
H       1.62      -2.00      15.05
H       2.75      -0.69      15.21
H       3.58      -0.61      11.47
H       3.95       0.20      12.99
H       3.27      -6.50      13.50
H       5.59       0.64      11.27
H       6.08      15.75       6.19
H       0.12      11.19       3.97
H      10.56       1.87       5.08
H      12.88       0.24      12.38
H      -1.21       7.38      10.15
H      -7.17      11.59       7.31
H      -4.02       4.97      16.54
H      -1.70      -0.53      11.48
H      13.37       8.14       0.92
H       7.41       8.49       5.98
N      -3.94      13.22      11.67
N       3.10      -4.99      10.57
N      -4.13      15.17       7.37
N       7.47       0.14      10.68
N       7.32      -1.98      12.28
N      10.13      -3.55      11.97
N      12.28      -3.25       6.78
N       3.04      16.52       5.18
N       7.91      -1.98       5.50
N      -0.75      10.97       5.79
N       1.61      11.53       6.89
N       1.15      11.44      10.09
N      10.64       3.90       5.22
N      10.39       3.65       7.86
N      10.45       6.65       9.06
N      -7.11       0.99      12.24
N      14.61       0.66       9.61
N      -4.45       1.72       8.40
N      -2.30       6.07      11.25
N      -4.25       7.88      11.32
N      -6.67       6.54      13.00
N      13.83      10.12       6.21
N      -5.68       8.89       6.15
N      15.73       6.17       4.46
N       3.35      14.15       0.37
N      -4.19       1.68      16.69
N       3.16       9.45       0.83
N       0.18      -0.79      12.20
N       0.03       1.66      13.23
N       2.84       2.17      14.75
N       4.99      -2.47      17.09
N      10.33       6.88       0.77
N       0.62      -4.22      16.63
N       6.54      10.18       5.27
N       8.90      10.85       4.23
N       8.44      13.67       2.71
