20

H       2.14       0.83       2.33
H       3.01       0.18       4.54
H      -0.96      -1.88       2.57
H      -0.20      -2.69       4.79
H       1.43      -4.08       8.66
H       0.56      -3.45       6.45
H       4.53      -1.38       8.42
H       3.78      -0.59       6.19
C       1.53      -1.39       4.85
C       1.62       0.08       2.92
C       2.19      -0.38       4.12
C      -0.16      -1.38       3.09
C       0.36      -1.89       4.30
C       2.05      -1.88       6.13
C       1.95      -3.34       8.07
C       1.39      -2.89       6.87
C       3.73      -1.89       7.89
C       3.22      -1.37       6.68
N       0.49      -0.42       2.38
N       3.08      -2.84       8.61
