16

H       0.68       6.57       1.58
H       1.84       4.39       1.34
H      -1.01       3.23      -1.66
H      -2.17       5.41      -1.41
C       0.32       5.85       0.85
C      -2.54       7.80      -0.19
C       1.02       4.65       0.67
C      -0.83       6.13       0.12
C      -0.66       3.95      -0.93
C       2.20       2.00       0.12
C      -1.36       5.15      -0.75
C       0.50       3.67      -0.20
N      -3.43       8.49      -0.61
N      -1.43       7.38       0.28
N       3.09       1.32       0.55
N       1.10       2.42      -0.35
