16

O       4.43      12.61       0.33
O       0.89      14.23      -0.33
V       2.49      13.57      -0.06
V       6.03      13.27       0.06
C       4.48      15.78       0.93
C       0.94      11.06      -0.93
C       4.48      14.29      -2.34
C       0.94      12.54       2.34
O       5.62      14.02      -1.74
O       2.08      12.81       1.74
O       3.28      15.29       0.72
O       6.82      11.55      -0.72
O       3.29      14.18      -1.79
O       6.83      12.66       1.79
O       2.07      11.70      -0.79
O       5.61      15.14       0.79
