18

C       2.83       7.34       7.57
C       3.68       8.71       5.74
C       3.69       8.93       4.38
C       2.71       8.36       3.56
C       1.61       7.68       4.11
C       1.58       7.50       5.48
C       2.66       7.94       6.28
O       3.97       8.82       1.73
O       1.80       6.84       8.08
O       1.77       9.04       1.53
C       2.81       8.64       2.15
O       4.00       7.04       7.97
N       0.57       7.10       3.30
O       0.87       6.48       2.20
O      -0.65       7.05       3.74
F       4.69       9.19       6.51
H       4.50       9.52       3.98
H       0.78       6.91       5.91
