30

H       5.75       5.18      13.03
H       7.72       2.49      14.83
H       7.28       3.23      12.71
H       4.21       1.05      15.35
H       3.39       2.61      15.55
H       3.01       2.67      13.35
H       6.70       1.05      14.65
C       4.81       3.23      11.37
C       5.43       4.33      15.04
C       5.06       4.46      13.53
C       6.71       2.16      14.51
C       4.23       2.11      15.02
C       5.58       2.81      15.37
C       5.11       3.07      12.81
C       6.52       2.48      13.02
C       3.99       2.17      13.51
C       5.91       2.55      16.78
N       6.65       5.10      15.33
N       3.89       0.81      12.95
O       5.03       4.36      10.81
O       4.09       2.34      10.86
O       6.85       3.23      17.28
O       5.56       1.42      17.24
O       7.73       4.97      14.62
O       6.63       6.00      16.28
O       4.80      -0.08      13.21
O       2.80       0.43      12.36
F       6.73       1.36      12.24
F       4.39       4.85      15.81
F       3.78       4.99      13.41
