18

C       4.85       3.35       7.39
C       5.69       1.92       4.10
O       6.80       3.53       1.26
O       5.50       1.73       1.44
C       5.91       2.84       1.87
N       5.53       5.54       3.07
O       4.95       5.56       1.91
O       5.95       6.67       3.57
H       5.49       1.11       6.06
H       5.83       0.93       3.69
H       5.23       5.40       5.70
C       5.52       2.01       5.46
C       5.67       3.07       3.28
C       5.56       4.34       3.86
C       5.40       4.43       5.25
C       5.35       3.26       6.04
O       5.00       4.45       7.99
O       4.06       2.44       7.81
