18

C       0.72       2.51       3.94
C       0.86       2.50       5.31
C       0.39       3.56       7.45
C      -0.05       3.22       6.12
H       1.71       1.99       5.73
O      -0.47       1.90       1.50
O      -1.38       3.93       1.45
C      -0.63       3.06       1.98
N      -2.16       4.51       6.35
C      -0.32       3.24       3.37
O      -2.72       5.61       5.94
O      -2.57       3.95       7.45
H      -2.12       4.39       3.73
H       1.42       1.96       3.33
O       0.06       4.69       7.91
C      -1.15       3.87       5.55
C      -1.26       3.90       4.17
O       1.34       2.87       7.95
