138

C       0.55      16.35       9.50
C       0.61      15.04      10.12
C       9.82      13.93       9.55
C       9.71      15.18       7.41
C       0.26      16.33       8.09
C       6.45      12.94      10.49
C       9.42      14.06       8.20
C       0.79      15.12       5.16
C       9.57      15.07       6.01
C       8.44      13.79       4.32
C       9.64      12.62      10.10
C       0.80      10.51      10.60
C       8.44      11.89       9.87
C       9.82      12.50       2.72
C       9.72       8.52       9.53
C       9.64      13.62       3.58
C       6.45      13.79       3.10
C       9.58       9.79      10.14
C       0.55      -5.36      10.22
C       0.26      -5.33      11.63
C       9.72      -4.19      12.31
C       9.43      -3.06      11.53
C       9.83      -2.93      10.17
C       0.61      -4.05       9.60
C       0.55      -0.24      19.08
C       0.26       0.96      18.36
C       9.72       0.98      17.03
C       9.45      -0.26      16.43
C       9.84      -1.50      17.00
C       0.62      -1.44      18.26
C       0.55      11.24       0.65
C       0.61      12.44       1.46
C       9.43      11.26       3.29
C       9.72      10.02       2.70
C       0.26      10.04       1.36
C       0.55       4.87      10.23
C       0.26       3.64       9.54
C       9.72       2.48      10.19
C       9.43       2.59      11.56
C       9.83       3.70      12.35
C       0.61       4.75      11.67
C       0.55       6.13       9.50
C       0.61       6.24       8.05
C       9.84       7.30       7.37
C       9.44       8.41       8.16
C       0.26       7.35      10.18
C       9.66       7.48       5.97
C       0.81       8.10       3.89
C       9.58       8.85       3.50
C       8.45       8.04       5.46
C       6.46       6.97       6.05
C       9.66      -2.63      16.14
C       0.81      -4.12      14.56
C       9.59      -4.08      13.72
C       8.46      -2.79      15.40
C       6.47      -2.81      16.63
C       9.65       3.52      13.75
C       0.80       2.90      15.84
C       9.59       2.14      16.23
C       8.45       2.96      14.27
C       6.45       4.01      13.67
C       9.65      -1.62       9.63
C       0.81       0.49       9.13
C       9.59       1.20       9.58
C       8.45      -0.90       9.86
C       6.46      -1.95       9.22
H       0.20      17.18       7.55
H       1.42      14.00      11.69
H       5.55      13.37      10.05
H       6.94      13.71      11.08
H       2.02      15.52      11.51
H       9.10      13.22       7.70
H       1.68      15.48       5.50
H       6.14      14.77       3.48
H       1.69      10.03      10.74
H       6.14      12.12      11.15
H       9.11      11.25       4.26
H       1.42      14.32       1.58
H       9.13       9.26       7.68
H       0.20       7.39      11.19
H       5.55      13.19       2.94
H       6.95      13.92       2.13
H       0.21      -6.19      12.17
H       9.12      -2.22      12.02
H       2.02      -4.53       8.21
H       1.43      -3.00       8.03
H       0.19       1.86      18.83
H       9.14      -0.25      15.45
H       0.20       9.14       0.89
H       2.02      -2.40      19.37
H       1.44      -3.31      18.13
H       2.01      13.41       0.36
H       0.20       3.60       8.53
H       9.11       1.74      12.04
H       2.02       6.19      11.95
H       1.43       5.59      13.36
H       1.43       5.41       6.36
H       2.02       4.80       7.77
H       1.69       8.21       3.39
H       5.57       7.13       6.65
H       6.97       6.07       6.41
H       6.15       6.82       5.01
H       1.70      -4.49      14.22
H       5.58      -2.21      16.80
H       6.97      -2.95      17.59
H       6.16      -3.78      16.24
H       1.69       2.79      16.32
H       5.56       3.85      13.07
H       6.95       4.91      13.29
H       6.14       4.17      14.70
H       1.69       0.97       8.97
H       5.57      -2.39       9.65
H       6.96      -2.71       8.62
H       6.15      -1.12       8.57
N       1.36      14.85      11.24
N       0.80      14.33       4.04
N       8.50      14.40       5.52
N       0.80      11.87      10.47
N       8.50      10.54       9.80
N       1.36      13.50       1.07
N       1.36      -3.86       8.47
N       1.37      -2.50      18.66
N       1.36       5.63      12.40
N       1.36       5.36       7.33
N       0.82       7.53       5.13
N       8.51       8.77       4.32
N       0.82      -3.33      15.67
N       8.51      -3.40      14.20
N       0.81       3.47      14.59
N       8.51       2.22      15.40
N       0.82      -0.87       9.25
N       8.51       0.45       9.92
O       7.28      12.47       9.42
O       7.28      13.10       4.04
O       7.30       8.13       6.19
O       7.31      -2.11      15.69
O       7.29       2.85      13.54
O       7.30      -1.49      10.30
