22

O       8.20       1.11      12.69
C       9.55       4.41      16.03
C       7.13       0.61      16.01
C       5.13       4.61      16.03
C       9.03       4.03      12.02
C       7.15       0.68      12.11
C       5.09       4.63      12.14
Cr       5.56       2.25      14.07
Cr       7.28       5.20      14.08
Cr       8.97       2.22      14.10
O       6.00       0.91      12.57
O       5.00       3.47      12.67
O       7.27       3.22      14.08
O       5.90       5.50      15.58
O       8.62       5.08      15.49
O       9.90       3.27      15.61
O       8.18       1.12      15.49
O       5.98       0.92      15.58
O       4.98       3.48      15.46
O       5.92       5.49      12.56
O       8.64       5.07      12.70
O       9.91       3.26      12.60
