22

C       4.11       5.12       2.75
C       1.67       8.91       2.75
C      -0.31       4.92       2.74
C       3.59       5.49       6.76
C       1.70       8.92       6.62
C      -0.37       4.89       6.63
Cr       1.84       4.33       4.70
Cr       0.10       7.28       4.71
Cr       3.51       7.31       4.68
O       0.46       4.04       3.20
O       0.54       8.62       6.21
O      -0.46       6.06       6.11
O       1.82       6.31       4.70
O       3.17       4.45       3.29
O       4.44       6.26       3.17
O       2.72       8.41       3.29
O       0.52       8.61       3.20
O      -0.47       6.05       3.32
O       0.47       4.05       6.22
O       3.19       4.46       6.08
O       4.46       6.27       6.18
O       2.74       8.42       6.08
