138

C       2.45       6.46      15.64
C      -5.36       9.68      17.68
C       1.10       7.23       8.09
C       2.51       6.44      11.95
C       4.61       1.12       6.44
C       7.14       6.18      11.93
C      -3.08       6.78       6.51
C       4.57       2.91      11.75
C       5.74       9.56       0.67
C       0.96       7.35       6.64
C      -3.68       6.46       1.40
C       7.67       6.53      17.00
C       6.93       7.48       0.70
C      -4.15       7.62      17.68
C      -2.94       5.53      17.71
C       8.11       5.38       0.69
C       4.76       2.32       1.74
C       1.39       6.91      16.66
C       5.91       2.64       0.99
C       0.54       6.08      17.41
C       4.62       1.18       2.75
C       5.95       3.08      18.00
C       0.17       6.21       0.39
C       3.60       3.05      18.22
C       1.38       8.23       0.17
C       3.63       2.95       1.24
C       1.42       8.20      17.16
C       7.08       1.82       0.77
C       0.65       4.66      17.63
C       7.12       2.22      17.69
C       0.32       4.77       0.71
C       4.71       3.06      17.35
C       0.81       7.27       1.05
C       7.17       6.18      15.67
C      -3.13       6.71       2.72
C      -3.44       6.67       7.90
C       6.26       8.51       1.37
C      -3.53       6.62      10.69
C      -2.71       5.74       8.63
C      -2.71       5.73       9.99
C      -4.07       7.72      10.00
C      -4.06       7.73       8.60
C      -4.69       8.71      17.00
C       8.64       4.27       8.48
C       8.69       4.23       9.98
C       4.72       1.94       7.63
C       1.74       6.85      10.78
C       3.62       2.61       8.16
C       2.10       8.03      10.12
C       3.59       2.95       9.50
C       1.78       8.22       8.79
C       5.83       2.11       9.77
C       0.53       6.17       8.81
C       5.88       1.82       8.41
C       0.81       6.00      10.17
C       2.16       2.25       8.17
C       3.45       8.66       9.95
C       4.61       2.98      15.83
C       0.92       7.33       2.57
C       2.15       2.58       9.64
C       3.11       8.85       8.50
C       4.66       2.63      10.33
Cr       3.00       3.97      13.80
Cr      -0.87       6.15       4.61
Cr       6.52       3.93      13.78
Cr       0.86       9.22       4.60
Cr       4.79       7.00      13.81
Cr      -2.65       9.18       4.59
F      -4.71       8.72      10.66
F      -4.71       8.72       7.94
H      -2.43       4.73      17.21
H      -1.59       3.88      10.38
H       7.72       3.84       8.05
H       6.68       1.82      10.38
H      -0.04       5.41       8.29
H       6.76       1.34       8.02
H       0.42       5.15      10.70
H       8.54       4.53       1.20
H       1.97       1.17       7.98
H       4.28       7.93      10.09
H       1.55       2.95       7.55
H       3.55       9.61      10.51
H       1.50       3.43       9.87
H       8.66       0.17       8.21
H       1.99       1.68      10.28
H       3.75       8.24       7.82
H       6.02       8.47       2.42
H      -4.52       8.89      15.95
H      10.87       0.60       1.21
H      -0.18       0.74      17.14
H       2.79       2.96       1.91
H       1.84       8.93      16.49
H       6.77       0.81       1.05
H      -1.68       3.92       8.00
H       1.68       4.42      17.35
H       7.98       2.24       1.26
H      -0.17       4.09      17.14
H       7.99       2.76      17.28
H      -0.59       4.30       1.11
H       7.82       3.70      10.40
H       6.82       1.33      17.10
H       1.23       4.58       1.30
H       1.54       1.42      15.87
H       3.82       9.19       2.52
O       3.47       2.59      15.26
O      -2.28       5.86       6.09
O       7.48       5.01      12.31
O       5.71       2.79      12.41
O       0.53       6.29       5.99
O       4.77       4.97      13.80
O      -0.88       8.18       4.60
O       1.83       8.12       3.14
O       2.43       5.23      15.18
O       5.68       0.58       3.22
O       3.39       7.30      15.30
O       3.41       0.79       3.10
O       6.19       6.87      15.17
O      -3.24       7.90       3.22
O       7.51       5.01      15.26
O      -2.29       5.83       3.13
O       5.74       2.80      15.15
O       0.51       6.26       3.25
O       3.44       2.58      12.31
O       1.84       8.15       6.09
O       2.40       5.23      12.44
O       5.70       0.62       5.96
O       3.36       7.30      12.34
O       6.17       6.87      12.44
O       3.43       0.82       6.05
O       2.90       0.64      17.91
O       1.17       2.11       0.56
O       1.44       2.25      16.40
O       3.81       7.63       0.49
O       9.00       0.16      17.85
O       3.15       9.69       2.00
O      -3.23       7.93       5.96
S       2.29       2.02      17.84
S       2.93       8.84       0.56
