249

C       7.38      11.59      33.96
C       6.17      12.34      34.02
C       5.33      10.97       0.96
C       6.43      10.07       0.83
C       6.42       8.94       1.71
C       5.41       8.73       2.68
C       4.41       9.71       2.83
C       4.35      10.80       1.96
C       5.89      13.36      33.08
C       6.81      13.65      32.06
C       8.05      13.00      32.01
C       8.32      11.98      32.96
C       8.77      10.70       0.83
C       9.87       9.80       0.96
C       9.03       8.43      34.02
C       7.82       9.18      33.96
C       9.30       7.41      33.08
C       8.39       7.12      32.06
C       7.15       7.77      32.01
C       6.88       8.79      32.96
C       8.77      11.83       1.71
C       9.79      12.04       2.68
C      10.79      11.06       2.83
C      10.84       9.98       1.96
C       7.60      10.39      34.88
C      10.06       8.65       0.06
C       5.14      12.12       0.06
C      -1.55       9.98      10.64
C      -0.30      10.65      10.69
C      -1.06      12.06      12.62
C      -2.39      11.56      12.50
C      -3.37      12.12      13.37
C      -3.05      13.11      14.35
C      -1.70      13.48      14.50
C      -0.73      12.99      13.62
C       0.72      10.38       9.75
C       0.52       9.44       8.74
C      -0.67       8.69       8.68
C      -1.69       8.97       9.63
C      -3.02       9.22      12.50
C      -4.35       8.72      12.62
C      -5.11      10.12      10.69
C      -3.86      10.80      10.64
C      14.48      10.40       9.75
C      -5.93      11.33       8.74
C      -4.75      12.08       8.68
C      -3.73      11.81       9.64
C      -2.05       8.65      13.37
C      -2.37       7.66      14.35
C      -3.71       7.29      14.50
C      15.93       7.78      13.62
C      -2.71      10.39      11.56
C      15.17       9.12      11.72
C       0.03      11.65      11.72
C      11.82       0.67      22.30
C       1.47      17.09      22.36
C       3.07      17.05      24.28
C      13.61       0.60      24.16
C      14.59       1.16      25.03
C      15.28       0.39      26.01
C       4.63      16.89      26.16
C       3.71      16.29      25.29
C       0.72      16.35      21.41
C       0.01      16.99      20.40
C      10.26       0.54      20.35
C      11.01       1.29      21.30
C      11.90       2.32      24.16
C      12.13       3.72      24.28
C      13.73       3.68      22.36
C      13.68       2.26      22.30
C      14.47       4.42      21.41
C      15.18       3.78      20.40
C      15.24       2.38      20.35
C      14.49       1.64      21.30
C      10.91       1.76      25.03
C      10.22       2.53      26.01
C      10.57       3.88      26.16
C      11.48       4.48      25.29
C      12.75       1.46      23.22
C      13.03       4.46      23.39
C       2.17      16.31      23.39
C       6.76       5.67      29.51
C       6.98       5.63      28.10
C       7.55       4.47      27.51
C       7.97       3.36      28.28
C       7.74       3.41      29.68
C       7.12       4.54      30.27
C       6.00       6.70      30.08
C       8.39       2.17      27.67
C      -6.37      13.47       6.18
C      -6.52      13.30       4.78
C      12.80      13.38       4.18
C      11.63      13.57       4.96
C      11.79      13.75       6.36
C      -7.53      13.73       6.94
C      -5.09      13.62       6.75
C      10.39      13.80       4.34
C      17.25       3.09      17.84
C      17.18       3.31      16.44
C      17.90       4.38      15.85
C      -1.96       5.30      16.62
C      -1.89       5.08      18.02
C      18.06       3.97      18.61
C      16.74       1.92      18.41
C      -1.14       6.26      16.00
C       8.44      15.10      29.51
C       8.21      15.14      28.10
C       7.64      16.30      27.51
C       7.22      17.41      28.28
C       7.45      17.37      29.69
C       8.08      16.23      30.27
C       9.20      14.07      30.08
C      17.11       0.75      27.66
C       0.95       7.30       6.18
C       1.11       7.47       4.78
C       2.40       7.39       4.18
C       3.57       7.20       4.96
C       3.41       7.02       6.36
C       2.12       7.04       6.94
C      -0.32       7.16       6.75
C       4.81       6.97       4.34
C      -2.05      17.68      17.84
C      -1.98      17.46      16.44
C      -2.70      16.39      15.85
C      -3.45      15.47      16.62
C      -3.52      15.70      18.02
C      -2.86      16.81      18.60
C       8.76       1.01      18.41
C      -4.27      14.51      16.00
H      11.49      11.13       3.57
H      11.61       9.30       2.07
H      10.19       6.90      33.10
H       8.66       6.42      31.37
H       5.99       9.30      32.90
H       8.01      12.51       1.64
H       7.19       8.27       1.64
H       3.71       9.64       3.57
H       3.59      11.47       2.07
H       9.20      11.47      32.90
H       5.01      13.87      33.11
H       6.54      14.35      31.37
H      11.02       8.79      34.55
H      10.11       7.74       0.67
H       4.18      11.98      34.55
H       5.08      13.03       0.67
H      16.60       6.65      15.23
H      14.96       7.45      13.73
H      13.59       9.89       9.78
H      13.94      11.45       8.04
H      -2.84      12.32       9.57
H      -1.08       8.97      13.31
H      -4.34      11.80      13.31
H      -1.41      14.12      15.23
H       0.24      13.32      13.73
H      -2.57       8.45       9.57
H       1.61      10.88       9.78
H       1.26       9.32       8.05
H      14.81       8.22      11.22
H      14.35       9.53      12.33
H       0.39      12.55      11.22
H       0.84      11.24      12.33
H      10.16       4.46      26.90
H      11.68       5.48      25.40
H      14.48       5.45      21.44
H      15.66       4.36      19.71
H      14.49       0.61      21.23
H      10.71       0.76      24.97
H      14.79       2.16      24.97
H       5.04      16.32      26.90
H       3.51      15.30      25.40
H      11.01       2.31      21.23
H       0.72      15.32      21.44
H      -0.46      16.41      19.71
H      12.42       5.23      22.89
H      13.78       4.96      23.99
H       2.77      15.55      22.89
H       1.41      15.81      23.99
H       7.65       4.43      26.49
H       6.91       4.52      31.27
H       5.12       6.87      29.64
H       7.92       1.35      27.96
H      12.73      13.32       3.17
H      -7.44      13.92       7.94
H      -4.51      14.29       6.32
H       9.92      14.62       4.63
H      17.88       4.48      14.83
H      18.18       3.79      19.61
H      17.03       1.07      17.98
H      -0.19       6.26      16.29
H       7.55      16.34      26.49
H       8.29      16.25      31.27
H      10.08      13.90      29.64
H      17.58       1.57      27.96
H       2.47       7.45       3.16
H       2.03       6.86       7.94
H      -0.90       6.49       6.32
H       5.28       6.15       4.63
H      -2.68      16.29      14.83
H      -2.98      16.98      19.61
H       8.47       1.85      17.98
H      -5.22      14.51      16.30
N       6.24       7.48      31.08
N       8.96      13.29      31.08
N       5.45       7.64       3.44
N       9.75      13.13       3.44
N      -4.54      13.02       7.75
N      -0.87       7.76       7.75
N      -4.01      13.62      15.11
N      -1.40       7.15      15.11
N      15.95       1.74      19.41
N       9.56       1.19      19.41
N      16.21       0.97      26.77
N       9.30       1.95      26.77
N       8.12       2.30      30.49
N       6.61       6.74      27.30
N      10.64      13.98       7.16
N      -5.37      13.07       3.98
N      -1.12       5.96      18.82
N      16.41       2.43      15.64
N      17.38       0.62      30.49
N       8.59      14.04      27.30
N       4.56       6.79       7.16
N      -0.04       7.70       3.98
N      -4.30      14.82      18.82
N       9.10       0.50      15.64
O       8.96       2.63      31.36
O       7.60       7.23      26.71
O       5.74       6.42      26.45
O       7.12       1.78      31.06
O      10.51      13.09       8.04
O      -5.44      11.96       3.38
O      -5.21      13.98       3.12
O      10.69      15.10       7.73
O      -1.82       6.52      19.70
O      15.49       3.04      15.05
O      17.11       1.83      14.79
O      -0.17       5.35      19.39
O      16.54       0.30      31.36
O       7.60      13.54      26.71
O       9.46      14.35      26.45
O      18.38       1.14      31.06
O       4.69       7.69       8.03
O       0.03       8.81       3.38
O      -0.20       6.79       3.13
O       4.51       5.67       7.73
O      -3.59      14.25      19.70
O      -0.29      17.73      15.05
O       8.39       1.09      14.79
O      -5.24      15.42      19.39
