23

Sm       0.94       6.59      12.04
Sm       5.04       5.86      13.13
C       3.48       6.30      10.07
C       2.28       5.16      14.86
C       5.45       3.07      13.88
C       2.78       8.65      13.08
C      -1.86       8.32      11.08
C      -0.99       7.47      14.88
C      -0.76       4.32      11.42
O       3.53       5.28      15.02
O       1.73       5.01      13.72
O       2.29       6.74      10.06
O       3.95       5.59      11.03
O       4.83       3.37      12.79
O       5.98       4.00      14.57
O       1.85       8.94      12.27
O       3.13       7.41      13.25
O       6.28       7.00      14.82
O      -0.11       7.38      13.97
O      -0.66       7.88      10.97
O       5.72       7.86      11.88
O      -1.28       5.24      12.15
O       0.41       4.43      10.96
