26

Ni       7.62      10.24      32.39
Ni       9.72       8.50      30.54
Ni       9.70       8.15      33.63
Ni      12.26       6.85      31.76
O       7.62      10.86      30.37
O       7.39      10.07      34.43
O       9.38      11.24      32.58
O       8.14       8.90      29.32
O       8.44       8.50      32.12
O      10.15      10.02      34.34
O       8.28       8.04      35.06
O      10.99       8.41      28.93
O      11.01       8.34      32.07
O       9.27       6.51      30.35
O      12.88       7.60      29.97
O      11.14       7.48      34.92
O      11.20       5.39      30.79
O      11.77       5.81      33.50
C       7.57      10.08      29.31
H       7.76       7.79      32.06
H      11.52       9.19      32.14
C      10.13      11.14      33.65
C       7.30       8.93      35.12
C      12.09       7.68      28.91
C      10.16       5.61      30.02
C      11.78       6.36      34.70
