14

H       0.35      -0.25       5.90
H      -2.63      -1.07       3.60
H      -3.41       0.57       3.81
O      -1.86      -2.58       6.02
O       0.38      -2.80       5.79
H      -4.36      -0.93       4.05
O      -2.73       2.13       6.07
O      -0.48       1.91       5.85
O      -3.04      -0.51       5.57
C      -0.70      -2.09       5.86
C      -0.64      -0.69       5.81
C      -1.77       0.03       5.74
C      -1.66       1.43       5.91
C      -3.36      -0.48       4.19
