46

Cl      21.68       4.58      10.72
Cl      23.49       2.13      15.13
Cl      18.12       2.25      13.97
C      18.77       5.58      18.51
C      18.62       4.16      17.99
C      19.50       3.64      17.03
C      19.49       2.25      16.69
C      16.26       1.19      18.52
C      17.49       1.98      18.12
C      17.64       3.32      18.53
C      18.46       1.45      17.26
C      23.37      -0.86      19.08
C      22.56      -0.80      17.81
C      21.78       0.31      17.49
C      21.18       0.46      16.20
C      21.88      -3.07      14.80
C      21.97      -1.82      15.65
C      22.65      -1.85      16.88
C      21.30      -0.65      15.30
C      23.83       3.79      12.68
O      18.21       6.50      17.79
O      19.34       5.77      19.59
C      20.80       2.30      14.55
C      22.14       2.57      14.14
O      22.91      -3.27      14.04
C      22.43       3.31      12.99
O      20.87      -3.79      14.91
O      16.35       0.64      19.69
O      15.31       1.14      17.73
O      24.60       2.94      12.08
C      21.36       3.68      12.15
C      19.76       2.70      13.65
O      24.13       4.97      12.95
O      22.74      -1.26      20.14
O      24.59      -0.58      19.04
C      20.03       3.32      12.43
C      18.96       3.51      11.38
O      18.66       2.56      10.64
C      20.49       1.67      15.81
O      18.45       4.71      11.36
Cl      16.54       3.93      19.71
Cl      20.68       4.72      16.39
Cl      18.25      -0.19      16.75
Cl      23.62      -3.23      17.24
Cl      21.70       1.56      18.67
Cl      20.45      -0.63      13.80
