20

C      15.32       2.41      10.66
C      14.51       1.49      11.31
C      14.21       1.70      12.67
C      14.78       2.80      13.32
H      15.55       2.32       9.60
H      14.09       0.65      10.75
C      15.57       3.68      12.59
H      16.00       4.58      13.04
H      14.56       3.01      14.37
H      12.23      -0.23      16.43
H      14.22       0.75      15.30
H      11.84       0.91      11.67
H       9.95      -0.10      12.98
C      12.21       0.01      15.37
C      13.31       0.57      14.73
C      13.18       0.91      13.38
C      11.98       0.64      12.72
C      10.92       0.09      13.44
N      15.83       3.48      11.29
N      11.04      -0.20      14.74
