46

Cl      15.07      16.95       6.35
Cl      13.27      13.13       9.66
Cl      18.63      14.30       9.34
Cl      20.22       8.29       8.81
Cl      16.08      11.39       7.38
Cl      18.54      12.03      12.25
Cl      13.11      12.14      15.32
Cl      15.06       9.78      10.92
Cl      16.35      14.97      12.13
O      18.28      16.31       6.35
C      12.92      15.21       7.55
C      14.32      14.99       8.07
O      18.09      17.46       8.31
C      14.61      14.02       9.04
O      12.15      15.96       8.28
O      18.53       9.67       5.90
O      17.44       8.02       7.00
O      12.61      14.72       6.45
C      15.96      13.68       9.38
O      20.35       8.93      12.06
O      13.82      15.31      14.65
O      14.02       8.89      13.97
O      12.17       9.85      13.12
O      21.47      10.70      11.18
C      17.79      16.54       7.53
C      16.72      15.55       7.95
C      15.39      15.74       7.54
C      16.99      14.49       8.82
C      17.99       9.14       6.96
C      18.14       9.93       8.24
C      17.27      10.98       8.56
C      17.28      11.60       9.85
C      20.48       9.96      11.28
C      19.27      10.23      10.41
C      19.13       9.57       9.17
C      18.32      11.19      10.74
C      13.38       9.85      13.38
C      14.19      11.09      13.06
C      14.98      11.18      11.92
C      15.59      12.41      11.52
C      14.83      14.50      14.69
C      14.78      13.41      13.63
C      14.09      12.22      13.90
C      15.47      13.51      12.43
C      16.28      12.57      10.25
O      15.80      14.54      15.47
