20

H      14.10       8.76      17.02
H      13.71      10.36      18.89
H       9.70      10.92      17.33
H      10.28       9.29      15.51
H       8.97      13.53      20.91
H       9.35      11.37      19.72
H      13.36      12.77      18.83
H      12.80      14.88      20.08
C      13.14       9.24      17.15
C      12.91      10.14      18.18
C      11.66      10.78      18.25
C      10.67      10.44      17.31
C      10.99       9.54      16.30
N      12.20       8.97      16.22
N      10.87      14.26      20.54
C       9.93      13.30      20.46
C      10.15      12.11      19.78
C      11.40      11.90      19.17
C      12.39      12.89      19.31
C      12.08      14.06      19.98
