20

C       6.21      13.30      11.77
C       5.12      13.83      11.10
C       5.25      15.09      10.49
C       6.46      15.78      10.63
C       7.51      15.18      11.31
H       6.18      12.31      12.22
H       4.20      13.24      11.03
H       6.60      16.76      10.16
H       8.48      15.65      11.40
H       2.86      18.49       8.34
H       4.32      17.72      10.20
H       3.88      13.69       8.64
H       2.43      14.65       6.84
C       3.10      17.43       8.47
C       3.92      16.99       9.50
C       4.22      15.62       9.57
C       3.65      14.76       8.63
C       2.85      15.28       7.62
N       7.38      13.96      11.86
N       2.59      16.60       7.54
