14

Cu       3.55      25.04      19.47
O       2.19      25.14      18.06
O       2.09      27.38      20.87
C       1.79      26.23      21.34
Cu       3.52      27.48      19.49
C       1.84      26.28      17.57
O       2.18      27.42      18.02
O       4.89      25.06      20.88
C       5.28      26.28      17.62
O       2.19      25.10      20.87
O       4.93      25.14      18.09
C       5.22      26.19      21.39
O       4.87      27.35      20.96
O       4.94      27.42      18.09
