14

Cu       9.97       6.94      12.11
C       8.24       5.96      14.12
C       8.33       9.25      12.21
O       8.62       6.90      14.90
O       8.61       9.39      13.45
Cu       9.99       8.18      14.22
O      11.27       5.70      12.90
C      11.73       9.11      12.14
O      11.41       8.08      11.44
C      11.66       5.88      14.11
O      11.38       6.88      14.85
O       8.53       5.85      12.87
O      11.37       9.34      13.35
O       8.71       8.28      11.46
