14

O       8.27       8.31       1.35
C       8.01       7.25      -1.91
O       8.28       6.09      -1.42
Cu       9.70       8.41       0.02
C       7.98       7.18       1.89
O       8.32       6.03       1.45
Cu       9.68       5.96      -0.00
O      11.13       8.34      -1.33
C      11.41       7.17       1.90
O      11.00       8.31       1.47
C      11.42       7.21      -1.87
O       8.42       8.37      -1.44
O      11.04       6.06      -1.46
O      11.11       6.03       1.41
