20

Zn       6.71      11.42      18.40
Zn       6.70      11.45      15.59
C       6.52      14.05      16.95
N       6.92      11.33      13.54
N       6.61      11.44      20.46
C       7.34      12.39      12.82
C       7.29      12.36      21.19
O       6.56      13.49      15.81
O       6.83       9.40      15.89
O       8.73      11.64      16.01
O       8.76      11.46      18.28
O       6.80       9.36      18.16
O       4.66      11.28      15.82
O       6.63      13.47      18.08
O       4.67      11.34      18.09
C       6.86      10.12      12.94
C       9.33      11.56      17.14
C       6.88       8.81      17.02
C       5.91      10.49      21.11
C       4.09      11.33      16.96
