20

Zn       7.27       7.58      39.76
Zn       7.24       7.55      42.58
C       7.40       4.95      41.08
N       7.14       7.44      44.62
C       9.87       7.62      41.14
N       7.11       7.82      37.70
O       7.19       5.50      39.95
O       7.38       9.63      40.13
O       7.48       5.54      42.21
O       5.21       7.61      40.04
O       5.19       7.27      42.29
O       9.29       7.46      40.02
O       9.30       7.81      42.27
O       6.98       9.58      42.36
C       7.62       8.41      45.42
C       4.63       7.41      41.16
C       6.47       6.42      45.18
C       7.12      10.18      41.24
C       8.00       8.58      37.02
C       6.02       7.37      37.05
