16

V       4.50       0.15       0.05
V       1.03      -0.15      -0.05
O       1.43       0.72       1.71
O       3.72       1.74      -0.92
O       4.92      -0.72      -1.71
O       3.72       0.87       1.74
O       4.91      -1.59       0.98
O       1.43       1.60      -0.98
O       2.60      -0.81      -0.26
O       7.21      -1.75       0.92
O       7.21      -0.87      -1.74
O       6.06       0.81       0.26
C       2.55       2.19      -1.24
C       2.55       1.02       2.28
C       6.03      -2.19       1.24
C       6.04      -1.02      -2.28
