28

V       1.64       5.84      12.46
V       2.27       3.34      11.26
V      -3.39       1.65      12.96
V       3.83       4.17      14.14
Ni      -0.86       3.73      12.71
Ni       1.97       9.35      12.71
C       3.24       8.90      10.13
C       1.83      10.74      10.16
C      -0.32       4.26      15.59
C       0.62       2.30      14.80
C       0.69       9.80      15.29
C       2.09       7.96      15.25
C      -1.40       3.19       9.83
C      -2.34       5.16      10.62
N       2.36       9.68      10.82
N      -0.11       3.41      14.56
N       1.58       9.03      14.60
N      -1.60       4.06      10.85
O       0.80       2.81      11.82
O      -0.01       5.64      12.58
O       2.40       5.23      14.03
O       1.99       7.47      12.32
O       2.20       5.07      10.89
O      -2.51       4.67      13.58
O      -1.75       1.88      12.81
O       3.64       2.23      11.41
O       1.95      11.24      13.08
O       3.87       2.44      14.53
