30

O       1.04       7.93      36.49
C       1.71      10.01      20.60
C       1.58      10.06      22.03
C       1.51      10.04      23.24
C       1.46       9.95      24.68
C       1.96       8.81      25.32
C       0.90      10.99      25.44
H       2.41       8.01      24.74
H       0.50      11.87      24.95
C       0.82      10.88      26.83
C       1.90       8.71      26.71
H       0.37      11.68      27.41
C       1.32       9.73      27.48
C       1.23       9.60      28.95
H       2.30       7.83      27.20
C       1.73      10.62      29.78
H       2.16      11.52      29.35
C       0.68       8.44      29.52
H       0.27       7.67      28.90
C       1.72      10.46      31.17
H       2.12      11.24      31.80
C       0.67       8.29      30.91
H       0.23       7.40      31.34
C       1.21       9.28      31.74
C       1.18       9.12      33.17
C       1.18       9.03      34.37
C       1.14       9.06      35.81
O       2.29      10.99      19.96
O       1.33       8.93      19.96
O       1.19      10.22      36.41
