30

O       1.67       2.30      36.96
O       1.85       4.51      37.56
C       2.16       2.46      21.62
C       1.97       2.71      23.02
C       1.86       2.94      24.20
C       1.75       3.18      25.62
C       1.19       4.37      26.10
C       2.25       2.23      26.52
C       1.10       4.60      27.47
H       0.81       5.11      25.40
H       2.67       1.31      26.15
C       2.20       2.47      27.89
H       0.62       5.50      27.84
C       1.60       3.65      28.38
C       1.45       3.84      29.84
H       2.63       1.75      28.57
C       0.93       2.81      30.63
H       0.59       1.88      30.17
C       1.92       5.01      30.46
C       0.91       2.92      32.01
H       0.53       2.10      32.61
H       2.34       5.82      29.86
C       1.92       5.12      31.85
H       2.33       6.00      32.33
C       1.43       4.06      32.63
C       1.61       4.06      34.06
C       1.70       3.92      35.25
C       1.75       3.57      36.64
O       2.89       1.43      21.24
O       1.67       3.29      20.73
