30

C       6.43       9.09      12.88
C       6.26       9.22      14.31
H       5.63       6.25       6.25
C       6.12       9.29      15.50
H       5.74       6.49       8.70
C       5.91       9.25      16.92
H       7.15      10.25       5.78
H       5.41      10.58      10.01
H       7.53       6.86      10.56
H       7.30      10.49       8.23
H       5.44      10.95      12.44
H       7.42       7.17      13.00
C       5.75       8.26       1.84
C       5.94       8.17       3.25
C       6.12       8.17       4.44
C       5.99       7.18       6.68
C       6.35       8.24       5.86
C       6.06       7.31       8.07
O       5.22       9.35       1.33
C       6.85       9.43       6.42
O       6.16       7.29       1.05
C       6.51       8.51       8.64
O       5.88       8.09      17.52
C       6.93       9.56       7.80
O       5.66      10.37      17.58
C       6.48       8.71      10.11
C       5.89       9.86      10.65
C       7.05       7.75      10.96
C       5.89      10.06      12.03
C       7.00       7.93      12.35
