30

C       2.62       8.85      12.40
C       2.05       9.84      11.59
C       2.62       9.00      13.83
C       2.65       9.07      15.04
H       1.62       6.16       5.75
C       2.74       9.05      16.47
H       1.72       6.42       8.20
H       3.36      10.07       5.27
H       3.62       6.67       9.99
H       3.51      10.31       7.72
H       3.62       6.94      12.44
H       1.63      10.47       9.58
H       1.57      10.70      12.03
C       2.06       7.95       1.28
C       2.22       7.94       2.71
C       2.33       8.00       3.91
C       2.03       7.07       6.18
C       2.48       8.10       5.34
O       1.28       7.07       0.70
C       2.09       7.21       7.57
C       3.01       9.27       5.91
O       2.59       8.93       0.58
C       2.61       8.39       8.13
C       3.08       9.41       7.30
O       2.68      10.18      17.14
O       2.89       7.90      17.08
C       3.18       7.56      10.43
C       2.63       8.56       9.61
C       3.18       7.71      11.82
C       2.07       9.71      10.20
