52

C      -1.16       3.26       4.06
C       1.00       3.68       3.96
C       0.95       3.81       2.59
C      -0.30       3.69       2.01
C       2.34       3.50       6.07
N      -0.01       3.37       4.73
N      -1.38       3.37       2.74
H      -1.92       3.07       4.59
N       2.25       3.88       4.66
C       2.21      10.15       2.82
H       1.73       3.98       2.07
C       1.37       8.80       1.31
N       3.31       9.42       3.07
H       3.27       3.29       6.29
C       3.39       8.27       2.38
H       2.04       4.25       6.62
H       1.78       2.72       6.24
C       2.44       7.94       1.42
C      -0.72       9.50       0.11
N       0.29       8.48       0.40
N       1.22       9.93       1.95
H       2.53       7.16       0.88
H       2.12      10.94       3.34
H      -1.10       9.33      -0.77
H      -1.42       9.46       0.79
H      -0.29      10.38       0.12
N      -0.16       4.78      -1.40
N       0.30       7.15      -1.52
N      -0.43       3.69       0.63
N       5.61       5.51       2.89
N       4.44       3.65       3.88
N       4.56       7.54       2.48
C       0.12       5.92      -2.03
C      -0.19       4.92      -0.10
C      -0.06       6.11       0.58
C       0.25       7.22      -0.18
C      -0.81       2.49      -0.11
H       0.20       5.86      -2.98
H      -0.16       6.16       1.53
H      -1.32       1.90       0.48
H      -0.01       2.03      -0.42
H      -1.36       2.74      -0.88
C       3.34       4.40       3.97
C       3.33       5.73       3.57
C       4.50       6.19       3.00
C       5.50       4.26       3.32
C       5.86       8.09       2.10
H       6.27       3.72       3.22
H       2.58       6.29       3.69
H       5.83       9.07       2.18
H       6.06       7.84       1.18
H       6.55       7.74       2.70
