52

C      15.51       0.75       5.35
C      14.51      -0.49       6.86
C      13.34       0.23       6.75
C      13.34       1.24       5.79
C      15.86      -2.23       8.06
H      16.28       0.93       4.83
N      14.45       1.54       5.10
N      15.62      -0.26       6.22
N      14.57      -1.62       7.77
H      12.58       0.05       7.29
H      15.83      -2.65       8.94
N       9.85      -3.60       3.44
H      16.07      -2.90       7.38
H      16.56      -1.53       8.05
C      10.25      -3.77       6.16
C       9.95      -2.55       5.58
N      10.31      -4.89       5.43
H       9.84      -1.76       6.10
N       9.58      -1.30       3.51
C       9.20      -1.34       2.10
H      10.21      -5.50       3.58
H       8.68      -0.54       1.88
H      10.00      -1.38       1.55
H       8.64      -2.14       1.93
N      11.23      -3.27       9.57
N      13.31      -2.05       9.69
N      10.30      -3.89       7.54
N      10.00       2.41       5.28
N       8.63       0.68       4.29
N      12.26       2.10       5.69
C      12.21      -2.63      10.20
C      11.38      -3.26       8.28
C      12.45      -2.74       7.59
C      13.40      -2.08       8.35
C       9.29      -4.65       8.28
C      10.13      -4.72       4.11
H      12.13      -2.58      11.15
H      12.53      -2.82       6.64
C       8.85       1.89       4.85
H       8.90      -5.33       7.69
C      10.96       0.33       4.60
C      11.00       1.59       5.17
C       9.71      -0.11       4.20
C       9.81      -2.55       4.21
H       8.59      -4.05       8.59
H       9.71      -5.09       9.05
H       8.09       2.44       4.95
H      11.74      -0.19       4.48
H      13.28       3.80       5.99
H      12.04       3.61       6.99
H      11.78       4.04       5.47
C      12.35       3.50       6.07
