14

Cu       6.50      10.83       8.09
Cu       8.12      12.63       8.17
C       8.62      10.62       9.99
C       8.55      10.54       6.26
C       6.04      13.08       6.40
C       6.05      12.62      10.13
O       7.49      10.11       9.72
O       9.25      11.48       9.26
O       7.67       9.86       6.91
O       8.86      11.76       6.49
O       5.73      11.85       6.54
O       6.93      13.71       7.09
O       5.40      11.87       9.30
O       7.18      13.16       9.91
