13

C       2.80       6.70      25.26
C       3.17       7.60      26.27
C       4.33       8.35      26.15
C       5.09       8.20      24.97
C       4.65       7.31      23.99
C       4.73       9.32      27.20
O       5.80       9.97      27.05
O       3.93       9.44      28.21
N       3.55       6.55      24.14
H       2.01       5.97      25.42
H       2.52       7.79      27.11
H       5.93       8.86      24.78
H       5.20       7.15      23.08
