20

C      14.39       0.12      21.31
C      10.06       1.02      21.52
O      13.28      -0.45      21.44
O      15.25       0.26      22.20
C      17.48       3.51      21.99
C      17.98       4.78      21.21
O      17.68      -0.62      24.47
O      11.80      -2.78      25.27
O      10.58      -3.30      23.60
O      15.21       0.45      25.24
O      13.23      -0.26      24.47
O      10.81       0.62      22.21
C      18.42      -1.02      25.16
O      16.69       2.78      21.40
O      17.90       3.30      23.08
C      11.01      -3.51      24.69
Tb      16.70       1.30      23.53
C      10.51      -4.78      25.47
Tb      11.79      -1.30      23.14
C      14.10      -0.12      25.37
