21

Cd       0.53       0.78       8.79
Cd       4.54       7.12       7.89
Cd       2.54       3.95       8.34
C       1.77      -2.17       9.29
C       1.55       6.68       9.06
C       0.51       2.70      10.79
C      -1.80       0.08       7.38
C       3.53       1.23       7.61
C       4.56       5.20       5.89
O       1.45       2.69       9.87
O      -0.28       1.73      10.86
O       0.83      -1.32       9.53
O      -1.55       1.17       7.99
O       2.31       0.95       7.35
O       1.15       5.61       8.48
O       3.63       5.21       6.81
O       5.36       6.17       5.81
O      -0.86      -0.77       7.14
O       1.52      -3.26       8.69
O       2.77       6.95       9.33
O       3.93       2.30       8.20
