14

C       7.76       5.67       0.84
C       7.60       6.00      -1.48
C       5.02       5.47      -0.63
C       6.31       5.37       1.32
N       5.54       4.71       0.26
H       4.45       5.02      -1.45
H       5.09       6.56      -0.58
H       6.38       4.69       2.18
H       5.84       6.31       1.63
H       8.28       6.16       1.66
H       8.26       4.72       0.59
H       7.57       6.65      -2.36
H       7.53       4.92      -1.62
N       7.77       6.55      -0.33
