11

C      12.52       5.33      16.36
O      12.35       5.90      14.08
O      11.22       3.50      19.32
C      11.45       3.59      18.03
N      13.82       6.27      17.86
O      10.55       4.99      15.12
N      13.16       5.30      18.50
O      10.90       2.81      17.22
N      13.45       6.29      16.59
C      11.74       5.36      15.07
C      12.34       4.68      17.59
