12

Zn       6.06       4.50       5.14
O       5.54       4.44       3.24
O       5.82       2.54       5.15
H       8.55       5.35       4.29
O       5.83       4.49       7.12
C       4.37       6.87       5.33
C       4.75       1.83       5.26
C       4.76       4.41       7.83
C       4.35       4.34       2.76
N       8.84       4.00       5.65
N       8.06       4.71       4.94
O       5.55       6.39       5.21
