94

H       1.36      16.85      18.52
H       3.38      19.48      18.01
H      -5.85      15.59      19.88
H       3.38      24.63      23.16
H       5.85      22.76      27.04
H      -3.38      19.48      18.01
H      -5.09      21.40      23.14
H       1.36      24.11      25.79
H      -1.36      16.85      18.52
H      -5.85      22.76      27.04
H       3.89      16.54      21.09
H       1.06      20.47      22.17
H       3.89      21.54      26.09
H      -5.33      25.87      24.10
H      -3.89      16.54      21.09
H      -5.33      18.54      16.77
H       5.85      15.59      19.88
H       5.33      18.54      16.77
H       5.33      25.87      24.10
H       5.09      21.40      23.14
H      -1.36      24.11      25.79
H      -1.06      20.47      22.17
H      -3.89      21.54      26.09
H      -3.38      24.63      23.16
H      -5.09      19.50      21.23
H       5.09      19.50      21.23
C       5.31      16.45      19.46
C      -3.93      18.63      18.41
C       6.94      25.07      26.11
C       1.09      22.53      24.19
C       3.52      23.00      24.56
C       5.02      18.10      17.72
C       2.43      18.74      20.41
C       0.68      23.52      25.18
C       3.52      18.08      19.63
C       6.94      16.52      17.57
C      -2.43      18.74      20.41
C      -5.31      16.45      19.46
C       4.24      20.94      22.67
C       2.87      21.26      22.98
C       4.21      16.97      20.15
C       0.68      17.46      19.11
C      -0.68      23.52      25.18
C      -4.21      16.97      20.15
C      -4.21      22.49      25.66
C      -1.09      18.45      20.10
C      -0.68      17.46      19.11
C      -5.02      24.91      24.53
C      -6.94      16.52      17.57
C      -5.74      24.38      25.62
C       3.93      24.23      24.01
C       2.87      19.66      21.37
C      -4.24      19.97      21.70
C      -3.52      18.08      19.63
C      -2.87      19.66      21.37
C      -5.31      23.17      26.19
C      -2.43      22.23      23.90
C       5.02      24.91      24.53
C      -1.09      22.53      24.19
C       1.09      18.45      20.10
C      -6.94      25.07      26.11
C      -4.24      20.94      22.67
C       5.31      23.17      26.19
C       5.74      17.02      18.25
C       4.21      22.49      25.66
C      -3.52      23.00      24.56
C      -5.02      18.10      17.72
C       4.24      19.97      21.70
C      -2.87      21.26      22.98
C      -3.93      24.23      24.01
C       5.74      24.38      25.62
C      -5.74      17.02      18.25
C       3.93      18.63      18.41
C       2.43      22.23      23.90
N       2.08      20.46      22.18
N       7.57      26.07      25.46
N       0.00      19.04      20.70
N       8.63      16.43      16.26
N       7.59      24.77      27.26
N      -7.59      15.38      17.87
N       0.00      21.94      23.60
N      -8.64      25.60      27.29
N      -8.63      16.43      16.26
N       8.63      26.38      26.21
N      -8.64      15.34      17.04
N      -7.57      26.07      25.46
N       8.64      15.34      17.04
N       7.59      15.38      17.87
N      -7.57      17.18      16.57
N       7.57      17.18      16.57
N       8.64      25.60      27.29
N      -8.63      26.38      26.21
N      -2.08      20.46      22.18
N      -7.59      24.77      27.26
