94

H       5.85       5.67       1.38
H      -5.85       5.67       1.38
H      -5.33       2.56       4.32
H       5.09       7.02       5.29
H       1.06       7.96       6.26
H       5.33       9.89      11.65
H       5.85      12.83       8.55
H      -5.09       7.02       5.29
H      -3.89       6.88       2.33
H       3.89       6.88       2.33
H      -1.36      11.58       9.90
H       3.38       3.79       5.27
H      -5.09       8.93       7.19
H       1.36       4.31       2.64
H      -3.38       3.79       5.27
H      -5.33       9.89      11.65
H      -1.36       4.31       2.64
H      -1.06       7.96       6.26
H       3.38       8.94      10.42
H       5.33       2.56       4.32
H      -5.85      12.83       8.55
H       3.89      11.88       7.33
H       1.36      11.58       9.90
H       5.09       8.93       7.19
H      -3.38       8.94      10.42
H      -3.89      11.88       7.33
C       1.09       5.89       4.23
C       5.74       4.04       2.80
C      -2.43       6.20       4.53
C       2.43       9.68       8.01
C       6.94      11.90      10.86
C       4.24       8.46       6.73
C      -3.93       9.80      10.02
C      -6.94       3.35       2.31
C      -3.93       4.19       4.42
C       3.93       9.80      10.02
C      -3.52      10.34       8.79
C       0.68       4.90       3.24
C      -4.21       5.93       2.76
C       5.02       3.51       3.89
C       4.21       5.93       2.76
C       2.87       8.77       7.05
C      -5.31       5.25       2.23
C      -0.68       4.90       3.24
C      -3.52       5.42       3.87
C      -5.74       4.04       2.80
C      -2.87       8.77       7.05
C      -4.24       8.46       6.73
C       3.52       5.42       3.87
C      -5.31      11.98       8.96
C      -5.74      11.41      10.17
C      -1.09       5.89       4.23
C      -2.43       9.68       8.01
C       6.94       3.35       2.31
C       2.43       6.20       4.53
C      -1.09       9.98       8.32
C       5.02      10.32      10.70
C      -0.68      10.97       9.31
C       4.21      11.45       8.28
C       5.74      11.41      10.17
C      -2.87       7.16       5.45
C       2.87       7.16       5.45
C       0.68      10.97       9.31
C      -4.21      11.45       8.28
C       4.24       7.48       5.76
C      -4.24       7.48       5.76
C       1.09       9.98       8.32
C      -5.02       3.51       3.89
C      -5.02      10.32      10.70
C       3.52      10.34       8.79
C      -6.94      11.90      10.86
C       5.31      11.98       8.96
C       5.31       5.25       2.23
C       3.93       4.19       4.42
N      -8.64       2.83       1.13
N      -8.63       2.05       2.21
N      -7.59      13.05      10.56
N       7.57       2.35       2.97
N       8.64       2.83       1.13
N      -8.63      12.00      12.16
N       8.63       2.05       2.21
N      -7.59       3.66       1.17
N       0.00       6.49       4.82
N      -7.57       2.35       2.97
N       0.00       9.39       7.73
N       2.08       7.97       6.24
N       8.63      12.00      12.16
N      -8.64      13.08      11.38
N      -7.57      11.24      11.86
N       7.59      13.05      10.56
N       7.59       3.66       1.17
N       8.64      13.08      11.38
N       7.57      11.24      11.86
N      -2.08       7.97       6.24
