10

C       6.04       6.38      14.49
C       7.29       5.58      14.63
C       7.30       4.26      14.39
C       8.54       3.45      14.35
H       8.20       6.13      14.84
H       6.38       3.73      14.14
O       4.90       5.80      14.55
O       6.19       7.63      14.28
O       9.66       3.98      14.69
O       8.42       2.25      13.95
