10

C       2.63       4.83      10.86
C       2.33       4.90       9.41
H       0.48       3.86       9.55
H       3.05       5.41       8.77
O       1.65       5.03       6.63
O      -0.17       3.81       7.04
C       0.88       4.41       7.46
C       1.20       4.37       8.90
O       1.84       4.21      11.66
O       3.68       5.41      11.30
