34

C       4.18      11.24      23.73
C       6.55      10.32      20.92
C       2.35       9.69      24.38
C       2.23       7.19      23.76
C       1.49       8.52      23.92
C       4.89       6.12      21.27
C       5.15      11.52      22.59
C       3.88       5.93      22.40
H       7.92       9.20      19.74
H       8.01       8.82      21.45
N       3.25      10.17      23.31
N       3.10       7.18      22.56
N       5.86      10.27      22.23
H       4.72      10.87      24.62
H       3.64      12.15      24.02
H       7.26      11.16      20.90
H       5.78      10.50      20.16
H       1.70      10.52      24.73
H       2.99       9.38      25.23
H       2.87       7.00      24.63
H       1.50       6.36      23.69
H       0.69       8.38      24.67
H       0.96       8.78      22.99
H       5.51       5.21      21.15
H       4.36       6.30      20.33
H       5.71       7.99      19.58
H       4.58      11.85      21.71
H       5.85      12.33      22.85
H       4.40       5.75      23.36
H       3.23       5.07      22.20
N       5.73       7.30      21.55
H       7.12       6.98      19.96
C       7.30       9.02      20.63
C       6.46       7.78      20.35
