22

C      10.77       4.85       2.27
C      10.32       6.33       2.31
C       9.80       2.48      -0.36
C      10.63       2.84       0.89
C      12.08       2.48       0.61
C      12.70       1.43       1.30
C      14.01       1.04       0.97
C      14.70       1.71      -0.05
C      14.09       2.77      -0.73
C      12.78       3.15      -0.41
N      10.41       4.24       1.16
H      10.27       2.22       1.73
H      12.16       0.92       2.09
H      14.47       0.22       1.50
H      15.71       1.41      -0.30
H      14.63       3.29      -1.51
H      12.30       3.97      -0.94
O       9.69       6.76       1.28
O      10.62       7.00       3.33
O      11.42       4.34       3.24
O       9.12       3.40      -0.93
O       9.89       1.28      -0.75
