34

C      -1.64      15.19      28.56
C      -0.14      15.29      28.83
C      -1.99      19.01      25.45
C      -2.38      16.49      28.26
C       0.26      19.82      24.80
C       2.49      18.66      25.43
C       1.71      19.97      25.27
C       2.09      15.82      27.91
C      -2.72      18.31      26.60
C       2.75      16.61      26.78
N      -2.00      17.07      26.96
N       0.64      15.69      27.63
N      -0.60      19.28      25.88
N       2.06      17.90      26.62
H      -2.10      14.74      29.45
H      -1.83      14.47      27.74
H       0.05      16.05      29.60
H       0.23      14.32      29.21
H      -1.95      18.35      24.57
H      -2.51      19.93      25.17
H      -3.47      16.30      28.29
H      -2.15      17.25      29.03
H      -0.13      20.79      24.46
H       0.21      19.11      23.96
H       2.34      18.02      24.55
H       3.57      18.88      25.49
H       2.23      20.60      24.52
H       1.74      20.56      26.20
H       2.56      14.84      28.03
H       2.19      16.38      28.85
H      -2.72      18.96      27.48
H      -3.77      18.11      26.34
H       2.65      16.07      25.82
H       3.82      16.74      26.98
