22

C      12.48       7.52       6.77
O       9.56       4.88       6.26
O      14.66       4.71       3.25
O      13.70       2.61       3.07
O      10.85       3.05       3.24
O      12.30       4.96       4.70
O      11.35       7.14       6.21
O      13.66       7.34       6.29
C      14.55       3.43       6.55
O      14.71       4.64       6.07
O      13.75       2.53       6.11
O      10.89       2.98       6.06
O       9.51       4.96       3.22
O      11.30       7.21       3.39
O      13.61       7.41       3.25
C       9.95       3.69       6.63
C      12.41       7.67       2.84
C      14.47       3.55       2.64
C       9.91       3.82       2.73
Cr      10.52       6.02       4.77
Cr      14.09       5.97       4.71
Cr      12.28       2.88       4.62
