128

Zn       9.80       2.52       1.13
Zn      12.32       4.24       2.31
Zn       3.52       2.49       5.85
Zn       6.03       0.75       4.64
Zn       2.81       7.48      12.83
Zn       0.29       5.75      11.65
Zn       9.08       7.51       8.11
Zn       6.58       9.25       9.31
H      12.39       3.01      13.05
H       8.40       1.82      11.95
H       8.37       3.80      10.36
H      10.31       5.71       5.71
H       6.86       4.44       3.50
H       5.42       5.66       5.22
H       6.10      -1.81       7.90
H       2.10      -0.63       8.98
H       2.07      -2.62      10.56
H       4.04      13.10       1.26
H       0.56       0.57       3.50
H      11.68      13.17       1.79
H       0.22       6.99       0.91
H       4.21       8.17       2.00
H       4.24       6.20       3.60
H       2.30       4.29       8.25
H       5.75       5.56      10.46
H       7.19       4.34       8.74
H       6.51      11.80       6.06
H      10.51      10.63       4.97
H      10.54      12.61       3.39
H       8.57      -3.10      12.70
H      12.05       9.43      10.45
H       0.92      -3.18      12.17
C      11.47       3.15      12.50
C      10.38       2.28      12.65
C       9.25       2.50      11.87
C       9.23       3.59      10.99
C      10.33       4.45      10.95
C      10.48       1.19      13.70
C      10.41       5.69      10.08
C       9.24       5.69       5.56
C       8.69       5.04       4.45
C       7.30       5.00       4.32
C       6.51       5.67       5.26
C       7.13       6.34       6.31
C       9.60       4.41       3.43
C       6.33       7.13       7.32
C       5.17      -1.96       8.44
C       4.09      -1.08       8.29
C       2.95      -1.31       9.07
C       2.93      -2.41       9.94
C       4.07      10.54       9.99
C       4.18       0.00       7.24
C       4.15       9.31      10.86
C       2.96      13.12       1.42
C       2.38      -0.03       2.53
C       0.99       0.01       2.68
C       0.24      13.16       1.74
C       0.85      12.49       0.68
C       3.30       0.60       3.55
C      12.59       7.89      13.64
C       1.14       6.84       1.45
C       2.23       7.72       1.30
C       3.36       7.50       2.09
C       3.38       6.41       2.97
C       2.28       5.55       3.01
C       2.13       8.80       0.25
C       2.20       4.31       3.87
C       3.37       4.31       8.40
C       3.92       4.96       9.50
C       5.31       5.00       9.64
C       6.10       4.33       8.70
C       5.48       3.66       7.64
C       3.01       5.59      10.52
C       6.28       2.87       6.64
C       7.44      11.95       5.52
C       8.52      11.08       5.67
C       9.66      11.31       4.89
C       9.68      12.40       4.02
C       8.54      -0.55       3.97
C       8.42      10.00       6.72
C       8.46       0.69       3.10
C       9.65      -3.12      12.54
C      10.22      10.03      11.42
C      11.62       9.99      11.28
C      12.37      -3.16      12.21
C      11.76      -2.49      13.27
C       9.31       9.40      10.41
C       0.02       2.11       0.31
N      11.43       4.22      11.70
N       8.48       6.32       6.47
N       5.17      10.78       9.24
N       2.19      12.50       0.51
N       1.18       5.78       2.26
N       4.13       3.68       7.49
N       7.43      -0.78       4.71
N      10.42      -2.50      13.44
O       9.65       0.23      13.63
O      11.36       5.18       0.61
O       9.47       5.84       9.24
O      11.40       6.46      10.26
O       9.03       3.82       2.46
O      10.85       4.54       3.63
O       5.14       7.40       7.11
O       7.01       7.50       8.39
O       3.34       0.95       7.30
O       5.11      -0.17       6.38
O       3.18       9.12      11.66
O       5.18       8.58      10.73
O       2.74       1.19       4.52
O       4.55       0.46       3.34
O      11.40       7.67      13.84
O       0.74       7.48      12.59
O       2.96       9.76       0.33
O       1.25       4.82      13.35
O       3.14       4.16       4.72
O       1.21       3.54       3.70
O       3.58       6.18      11.49
O       1.76       5.46      10.32
O       7.46       2.60       6.85
O       5.59       2.49       5.57
O       9.27       9.04       6.66
O       7.50      10.16       7.57
O       9.43       0.88       2.30
O       7.43       1.42       3.22
O       9.87       8.81       9.44
O       8.06       9.53      10.62
O       1.21       2.33       0.11
O      11.87       2.51       1.37
