35

O       0.50       5.20       2.45
O       2.06       3.58       2.27
O       8.78       5.15      -9.75
O       7.24       3.51      -9.56
H       5.70       9.30      -5.44
H       4.62       5.52      -3.67
H       3.33       9.31      -2.06
H       7.38       8.18      -6.19
H       8.41       7.05      -8.15
H       5.76       3.71      -7.65
H       4.63       4.87      -5.77
H       1.73       8.14      -1.24
H       0.77       7.04       0.77
H       3.55       3.80       0.36
H       4.62       4.94      -1.57
C       5.19       8.70      -4.70
C       5.24       7.30      -4.72
C       4.59       6.61      -3.69
C       3.90       7.31      -2.69
C       3.87       8.71      -2.78
C       5.92       6.61      -5.84
C       7.00       7.21      -6.52
C       7.60       6.57      -7.60
C       7.16       5.31      -8.01
C       6.10       4.69      -7.32
C       5.48       5.34      -6.26
C       7.76       4.61      -9.19
C       3.25       6.63      -1.55
C       2.16       7.21      -0.88
C       1.60       6.58       0.23
C       2.10       5.35       0.68
C       3.17       4.76       0.00
C       3.75       5.39      -1.09
C       1.52       4.67       1.88
N       4.51       9.39      -3.75
