35

O       4.63       2.24       2.45
O       6.18       3.87       2.26
O      12.90       2.30      -9.76
O      11.36       3.94      -9.57
H       9.81      -1.85      -5.46
H       8.74       1.92      -3.68
H       7.44      -1.87      -2.08
H      11.50      -0.73      -6.19
H      12.53       0.40      -8.15
H       9.89       3.74      -7.65
H       8.75       2.58      -5.78
H       5.85      -0.69      -1.25
H       4.90       0.41       0.77
H       7.69       3.64       0.36
H       8.75       2.50      -1.57
C       9.30      -1.25      -4.71
C       9.36       0.15      -4.74
C       8.71       0.84      -3.70
C       8.01       0.14      -2.71
C       7.98      -1.26      -2.80
C      10.04       0.84      -5.84
C      11.12       0.24      -6.52
C      11.72       0.88      -7.60
C      11.29       2.14      -8.01
C      10.23       2.76      -7.32
C       9.61       2.11      -6.26
C      11.88       2.84      -9.19
C       7.37       0.82      -1.56
C       6.28       0.24      -0.89
C       5.72       0.87       0.23
C       6.22       2.10       0.68
C       7.30       2.69      -0.00
C       7.88       2.05      -1.09
C       5.65       2.79       1.88
N       8.63      -1.94      -3.77
