22

C      16.08       7.51      10.24
C      17.39       7.27      10.56
H      21.82       3.29      10.62
H      19.44       3.66       9.99
H      19.87       7.73      11.46
H      22.25       7.17      11.98
C      18.00       6.01      10.32
C      17.16       5.03       9.74
C      15.85       5.30       9.43
H      15.57       8.46      10.38
H      17.94       8.09      11.02
H      17.51       4.02       9.54
N      22.07       5.21      11.34
N      15.32       6.54       9.66
H      15.14       4.58       9.03
O      23.33       4.96      11.67
O      14.05       6.78       9.34
C      21.31       4.24      10.76
C      19.99       4.48      10.45
C      19.39       5.74      10.68
C      20.23       6.72      11.27
C      21.54       6.45      11.58
