16

H      14.38      15.27       7.99
H      15.20      13.15       6.91
H      14.34      10.98      10.50
C      13.41      15.54      10.53
H      13.63      13.11      11.62
C      13.96      14.31       9.88
C      14.41      14.33       8.55
C      14.86      13.15       7.94
C      14.83      11.94       8.64
C      14.39      11.93       9.98
C      13.98      13.10      10.59
C      15.19      10.66       7.95
O      13.04      15.43      11.74
O      13.33      16.61       9.82
O      14.90       9.56       8.56
O      15.73      10.72       6.80
