13

O       9.35      -5.51      14.05
O       7.85      -5.80      11.75
C       9.18      -6.69      13.61
O       6.34      -4.13      10.17
C       6.47      -5.35       9.79
H       8.69      -8.99      11.81
C       7.26      -6.27      10.60
C       8.48      -6.88      12.33
O       5.94      -5.85       8.74
H       7.17      -8.23       9.61
C       8.30      -8.01      11.56
C       7.52      -7.62      10.44
O       9.59      -7.76      14.17
