13

C       4.94       4.03       3.04
C       6.01       4.04       3.88
C       5.72       3.46       5.13
C       4.43       3.02       5.22
S       3.56       3.35       3.78
H       6.85       4.38       3.65
H       6.34       3.38       5.82
O       3.78       4.49       1.04
O       5.93       4.93       1.10
O       4.44       1.98       7.33
O       2.49       2.29       6.30
C       3.72       2.38       6.38
C       4.88       4.50       1.64
