13

H       2.36       1.18      12.59
H       1.86       2.18      14.76
S      -0.93       2.21      12.72
O      -0.70       1.07       9.98
O       1.45       0.63      10.04
O      -0.04       3.58      16.27
O      -1.99       3.27      15.24
C      -0.76       3.18      15.31
C       0.40       1.06      10.58
C       0.46       1.53      11.97
C       1.53       1.53      12.82
C       1.24       2.10      14.07
C      -0.05       2.54      14.16
