142

Cd      14.68       2.37       3.67
Cd       5.45       3.65       2.62
Cd       8.31       2.22       4.44
Cd      11.82       0.93       5.50
Cd      10.76       6.81      12.56
Cd      19.99       5.52      13.61
Cd      17.13       6.95      11.78
Cd      13.62       8.24      10.73
Cd       6.37       0.00       0.00
Cd      12.72       4.59       8.11
H      14.27       4.08       0.95
H      21.29       3.16      15.51
H      17.44       4.70      15.28
H      10.29       5.74       0.82
H      12.46       7.25       2.65
H      16.46       8.84       2.21
H      15.44      10.90       1.24
H      11.61       9.33       1.56
H       7.90       0.51       7.16
H       8.56      -1.21       8.82
H      11.08       9.06       9.06
H       3.92      -1.16       7.29
H      12.45       9.14       5.46
H      16.45       7.56       5.90
H      15.43       5.49       6.88
H      11.60       7.06       6.56
H      11.17       5.10      15.28
H       4.15       6.01       0.71
H       8.00       4.47       0.95
H      15.15       3.43      15.41
H      12.98       1.92      13.57
H       8.98       0.34      14.02
H      10.00      -1.73      14.99
H      13.83      -0.16      14.67
H      17.54       8.67       9.06
H      16.88      10.39       7.41
H      14.36       0.12       7.17
H      21.52      10.33       8.93
H      12.99       0.04      10.77
H       8.99       1.62      10.32
H      10.01       3.68       9.35
H      13.84       2.11       9.67
C      11.70       3.83       2.03
C      12.21       4.77       1.03
C      13.54       4.79       0.58
C      20.26       3.12      15.87
C      18.12       3.98      15.74
C      11.32       5.71       0.48
C      15.07       6.63       3.00
C      14.53       7.87       2.49
C      13.14       8.04       2.34
C      15.38       8.92       2.09
C      14.82      10.06       1.54
C      12.67       9.19       1.74
C       5.33       0.75       6.08
C       5.83      -0.18       7.08
C       7.16      -0.21       7.53
C       7.54      -1.17       8.46
C      11.75       9.78       8.60
C       4.95      -1.13       7.63
C      15.06       9.76       5.10
C      14.52       8.52       5.62
C      13.14       8.35       5.77
C      15.37       7.48       6.02
C      14.81       6.33       6.57
C      12.66       7.20       6.37
C      13.74       5.34      14.19
C      13.23       4.40      15.20
C      11.90       4.38      15.64
C       5.18       6.05       0.35
C       7.32       5.19       0.49
C      14.12       3.46      15.75
C      10.37       2.55      13.22
C      10.91       1.30      13.74
C      12.30       1.14      13.89
C      10.06       0.26      14.13
C      10.62      -0.89      14.68
C      12.77      -0.02      14.48
C      20.11       8.42      10.14
C      19.61       9.36       9.14
C      18.28       9.38       8.70
C      17.90      10.34       7.76
C      13.69      -0.61       7.63
C      20.49      10.30       8.59
C      10.38      -0.59      11.12
C      10.92       0.66      10.61
C      12.30       0.82      10.46
C      10.07       1.70      10.20
C      10.63       2.84       9.65
C      12.78       1.97       9.86
N      12.42       3.05       2.88
N      11.50       2.42       3.62
N      10.29       2.80       3.24
N      10.38       3.69       2.25
N      19.40       4.01      15.33
N      16.39       6.32       2.99
N      16.44       5.07       3.42
N      15.20       4.64       3.70
N      14.32       5.60       3.45
N      13.49      10.19       1.34
N       6.05       1.54       5.24
N       5.13       2.16       4.49
N       3.92       1.78       4.87
N       4.01       0.90       5.86
N      13.04       9.74       9.00
N      16.38      10.07       5.12
N      10.07      -0.48       4.69
N       8.83      -0.05       4.41
N      14.31      10.79       4.66
N      13.48       6.21       6.77
N      13.02       6.13      13.35
N      13.94       6.75      12.60
N      15.15       6.37      12.99
N      15.06       5.49      13.98
N       6.04       5.16       0.89
N       9.05       2.85      13.23
N       9.00       4.11      12.80
N      10.24       4.54      12.52
N      11.12       3.58      12.78
N      11.95      -1.01      14.88
N      19.39       7.64      10.99
N      20.31       7.01      11.74
N      21.52       7.39      11.35
N      21.43       8.27      10.36
N      12.40      -0.57       7.22
N       9.06      -0.90      11.11
N      15.37       9.65      11.53
N      16.61       9.22      11.81
N      11.13      -1.62      11.56
N      11.96       2.97       9.45
Cl       3.44       2.30       1.49
Cl      13.67       2.78       6.49
Cl      13.78       0.02       4.01
Cl       9.81       2.30       6.63
Cl       7.30       1.81       1.63
Cl       7.42       4.56       4.10
Cl      22.00       6.88      14.74
Cl      11.77       6.39       9.74
Cl      11.66       9.15      12.21
Cl      15.63       6.88       9.60
Cl      18.14       7.37      14.60
Cl      18.02       4.61      12.12
