156

Ni       9.58       1.23       9.91
Ni       7.67       0.20       7.79
Ni       5.88       9.61       0.13
Ni       7.79      10.64      17.57
Ni       0.72       6.67      19.46
Ni       2.64       5.63       1.99
Ni       4.44       4.16       9.69
Ni       2.52       5.21      11.77
H       6.91       7.47      10.18
H       5.80       8.33      11.27
H       8.23       5.46      11.04
H       8.06       4.93      12.72
H      10.08       8.63      11.81
H       9.41       7.64      10.50
H       6.76       9.76      13.17
H       8.51       9.89      13.38
H       6.48       6.18      14.30
H       5.56       7.56      13.71
H       9.86       7.88      14.22
H       9.02       6.37      14.61
H       7.45       2.26       9.34
H       8.35       2.82       7.50
H       8.55       3.36       0.41
H       9.66       2.50       1.50
H       7.23       5.37       1.27
H       7.40       5.90       2.94
H       5.38       2.20       2.04
H       6.05       3.20       0.73
H       8.70       1.07       3.40
H       6.95       0.94       3.61
H       8.98       4.65       4.53
H       9.90       3.27       3.93
H       5.60       2.95       4.45
H       6.44       4.47       4.84
H       8.02       8.57      19.11
H       7.11       8.01      17.27
H       3.40       2.07      19.17
H       4.50       2.93      18.07
H       2.06       0.05      18.30
H       2.26      10.36      16.62
H       0.22       3.21      17.52
H       0.89       2.22      18.83
H       3.53       4.37      16.17
H       1.78       4.48      15.96
H       3.84       0.78      15.05
H       4.76       2.16      15.65
H       0.46       2.47      15.11
H       1.30       0.96      14.72
H       2.85       7.71       0.43
H       1.97       8.27       2.31
H       1.77       8.76       9.39
H       0.67       7.91       8.30
H       3.10      10.79       8.52
H       2.90       0.48       6.84
H       4.95       7.62       7.75
H       4.28       8.61       9.06
H       1.63       6.46       6.40
H       3.38       6.36       6.19
H       1.32      10.05       5.28
H       0.41       8.67       5.88
H       4.70       8.36       5.34
H       3.86       9.88       4.95
H       2.31       3.12      10.21
H       3.19       2.56      12.08
C       8.07       9.90      10.67
C       7.91       8.73      11.64
C       6.76       7.80      11.22
C       6.74       6.57      12.17
C       8.08       5.81      12.07
C       9.23       6.75      12.48
C       9.25       7.97      11.54
C       7.71       9.21      13.08
C       7.67       7.99      14.03
C       6.52       7.04      13.62
C       9.03       7.23      13.93
C       5.57       5.71      11.70
C       0.29       6.10      12.30
C       7.52       8.47      15.45
C       7.39       0.93       0.90
C       7.55       2.10       1.86
C       8.70       3.03       1.45
C       8.72       4.26       2.40
C       7.38       5.02       2.29
C       6.23       4.09       2.71
C       6.21       2.86       1.76
C       7.75       1.63       3.31
C       7.79       2.85       4.25
C       8.94       3.79       3.85
C       6.43       3.60       4.16
C       9.89       5.12       1.93
C       4.87       4.74       2.52
C       7.94       2.36       5.68
C       2.22       4.49      18.68
C       2.39       3.33      17.71
C       3.54       2.40      18.13
C       3.57       1.16      17.18
C       2.23       0.40      17.27
C       1.08       1.33      16.86
C       1.05       2.56      17.80
C       2.59       3.80      16.26
C       2.64       2.58      15.32
C       3.79       1.64      15.73
C       1.29       1.82      15.41
C       4.74       0.30      17.65
C      10.01       0.68      17.03
C       2.78       3.05      13.89
C       2.94       6.34       8.91
C       2.77       7.50       7.93
C       1.63       8.44       8.36
C       1.59       9.67       7.41
C       2.94      10.43       7.50
C       4.09       9.50       7.09
C       4.11       8.27       8.03
C       2.57       7.03       6.49
C       2.52       8.25       5.55
C       1.37       9.19       5.96
C       3.88       9.02       5.64
C       0.42      10.53       7.88
C       5.45      10.15       7.26
C       2.39       7.79       4.12
O       8.77       0.07      11.13
O       7.62       9.80       9.50
O       4.45       5.82      12.26
O       5.82       4.94      10.67
O       0.41       5.02      11.61
O       1.33       6.69      12.75
O       7.10       7.58      16.34
O       7.80       9.65      15.75
O       8.24       2.02       8.82
O       6.69      10.77       1.35
O       7.84       1.03      19.27
O       0.71       5.01       2.49
O       9.64       5.90       0.90
O       4.75       5.82       1.84
O       3.83       4.14       2.98
O       8.36       3.26       6.57
O       7.65       1.18       5.97
O       7.23       8.81      18.59
O       1.48       5.47      18.24
O       2.70       4.40       0.29
O       5.86       0.46      17.12
O       4.49      10.34      18.66
O       9.90      10.43      17.71
O       8.98       1.28      16.58
O       3.21       2.15      13.02
O       2.45       4.20      13.58
O       2.08       7.45       0.97
O       3.68       5.36       8.47
O       2.46       6.43      10.06
O       9.60      10.38       7.34
O       0.66       0.48       8.89
O       5.56       0.40       7.94
O       6.48       9.56       6.80
O       1.95       8.69       3.25
O       2.72       6.63       3.80
O       3.08       3.38      10.74
