32

O       3.15       3.50      17.51
O       1.08       5.80      21.65
O       1.92      -1.17      21.88
H       0.93       2.20      23.00
H       1.83      -1.54      24.72
H       2.09       4.55      19.59
H       3.47       0.48      19.97
H       2.90      -0.34      26.48
H       4.22      -1.49      26.16
H       2.85       1.86      24.69
H       4.06       1.70      23.39
H       4.80       1.16      25.98
H       5.36       0.09      24.67
C       1.47       2.28      22.07
C       3.59       2.65      18.36
C       1.43       3.48      21.35
C       2.30      -0.08      22.35
C       2.23       1.20      21.58
C       0.65       4.63      21.91
C       2.85       2.52      19.65
C       3.59      -2.34      23.83
C       2.84      -1.17      24.48
C       2.12       3.61      20.14
C       2.90       1.32      20.37
C       3.62      -0.68      25.72
C       3.54       1.16      24.19
C       4.47       0.48      25.19
N       2.78       0.02      23.63
O      -0.37       4.33      22.62
O       3.09      -3.50      24.00
O       4.62       1.90      18.22
O       4.71      -2.06      23.28
