32

H       6.44       7.29      16.06
H       7.37      11.04      14.36
H       7.60       4.94      19.48
H       8.99       9.01      19.09
H       8.43       9.84      12.60
H       9.75      10.98      12.91
H       8.38       7.64      14.37
H       9.59       7.79      15.67
H      10.33       8.33      13.09
H      10.89       9.40      14.40
C       6.99       7.21      17.00
C       9.11       6.84      20.71
C       6.94       6.01      17.71
C       7.82       9.58      16.72
C       7.75       8.29      17.48
C       6.16       4.87      17.16
C       8.36       6.97      19.42
C       9.13      11.83      15.24
C       8.37      10.67      14.60
C       7.63       5.88      18.92
C       8.42       8.17      18.70
C       9.15      10.18      13.35
C       9.06       8.34      14.88
C      10.00       9.01      13.88
N       8.31       9.48      15.44
O       5.14       5.17      16.44
O       8.62      12.99      15.07
O      10.14       7.58      20.85
O      10.25      11.55      15.79
O       8.66       6.00      21.57
O       6.58       3.69      17.42
O       7.45      10.66      17.20
