32

O      -0.58       6.31       5.53
O       1.06       7.69       4.73
O       0.62       4.08      10.35
H       2.28       8.71       6.70
H       0.40       4.90       7.44
H       2.51       2.66      11.82
H       3.32       6.46      10.21
H       4.69       4.35       9.39
H       3.73       3.77       8.01
H       4.18       1.47       8.50
H       5.69       2.16       9.14
H       4.79       2.18      11.41
H       4.13       0.65      10.78
C       0.53       6.94       5.63
C       3.72       8.83       9.00
C       1.66       1.36      10.37
C       2.15       7.83       7.32
C       1.28       6.81       6.92
C       1.11       5.67       7.73
C       1.86       5.53       8.90
C       1.69       4.31       9.77
C       2.74       2.36      10.79
C       2.72       6.55       9.30
C       2.84       7.72       8.53
C       4.01       3.56       9.06
C       4.60       2.16       9.24
C       4.15       1.74      10.65
N       2.79       3.52       9.91
O       3.97       9.76       8.16
O       1.19       0.64      11.32
O       4.15       8.75      10.20
O       1.38       1.27       9.13
