22

O       2.12       8.59       2.71
O       1.42       6.79       3.84
H       3.65       3.31       1.62
H       4.71       2.90      -0.60
H       5.31       5.98      -3.09
H       4.29       7.42      -1.62
H       3.23       7.83       0.60
H       2.63       4.75       3.09
C       5.88       3.38      -2.92
C       3.56       4.21       1.40
C       4.65       3.81      -0.79
C       4.03       4.68       0.16
C       5.14       4.28      -1.97
C       4.99       5.66      -2.27
C       2.07       7.35       2.92
C       4.39       6.52      -1.40
C       3.30       6.93       0.79
C       3.91       6.05      -0.16
C       2.81       6.45       1.97
C       2.95       5.07       2.27
O       5.82       2.14      -2.71
O       6.53       3.95      -3.84
