22

O      -1.34       5.57       4.61
O      -3.34       4.69       4.47
H      -4.26       5.06      -0.14
H      -2.95       5.17      -2.28
H       1.02       5.72      -2.14
H       0.98       5.67       0.14
H      -0.33       5.56       2.28
H      -4.30       5.01       2.14
C      -2.24       5.29      -0.37
C      -0.94       5.53      -3.92
C      -3.46       5.14       0.34
C      -2.17       5.29      -1.79
C      -1.00       5.46      -2.44
C       0.21       5.61      -1.70
C      -1.04       5.44       0.37
C      -2.34       5.20       3.92
C       0.18       5.59      -0.34
C      -1.10       5.44       1.79
C      -2.28       5.27       2.44
C      -3.49       5.12       1.70
O      -1.94       5.16      -4.61
O       0.06       6.04      -4.47
