22

O       8.10       6.45       7.13
O       9.69       7.97       6.75
H       4.12       8.80      12.45
H       4.86       7.58      10.67
H       7.18      11.35      12.08
H       9.62       9.77       8.49
H       8.88      10.98      10.28
H       6.56       7.21       8.86
C       6.52       8.72      10.26
C       4.89       9.06      12.00
C       5.33       8.33      10.94
C       5.03      11.04      13.57
C       6.73      10.59      11.79
C       5.57      10.21      12.44
C       7.22       9.85      10.69
C       8.85       9.50       8.94
C       8.41      10.23      10.00
C       8.71       7.52       7.37
C       7.01       7.97       9.15
C       8.17       8.36       8.51
O       5.64      12.11      13.81
O       4.05      10.60      14.20
