22

O       4.69       0.37       6.01
H       4.06       1.14      10.61
H       4.34      -0.14      12.76
H       4.97      -4.10      12.62
H       5.01      -4.05      10.33
H       4.73      -2.77       8.19
H       4.10       1.19       8.33
C       4.43      -0.85      10.84
C       4.58      -2.17      14.40
C       4.22       0.36      10.14
C       4.45      -0.92      12.26
C       4.63      -2.09      12.91
C       4.84      -3.29      12.17
C       4.64      -2.05      10.11
C       4.49      -0.73       6.55
C       4.86      -3.26      10.81
C       4.62      -1.99       8.68
C       4.44      -0.81       8.04
C       4.23       0.39       8.77
O       4.64      -1.11      15.09
O       4.39      -3.27      14.94
O       4.43      -1.80       5.86
