162

Cu       6.52      28.16       7.57
Cu       6.47      19.20      18.38
Cu       6.48      19.74      -2.61
Cu      11.16      14.76      -0.35
Cu       4.12      32.63      10.63
Cu       4.10      19.64      12.93
Cu       1.78      14.71      15.30
Cu       8.78      19.24       2.80
Cu       8.87      33.00       5.13
Cu       0.38      38.87      15.84
Cu       7.44      21.11       4.84
Cu       7.55      33.90       2.51
Cu       5.15      25.50       8.09
Cu       5.18      34.47      -2.91
Cu       5.02      33.92      18.09
Cu       9.80      38.91       0.24
Cu       2.72      34.47      12.64
Cu       2.73      20.49      10.32
C       7.67      26.47       9.70
C       7.73      35.35      -4.54
C       7.59      32.09      18.20
C      12.34      39.90       1.78
C       5.26      35.34      11.02
C       5.25      18.62      10.40
C       2.95      39.84      17.39
C       9.97      21.94       3.17
C      10.13      32.09       2.63
C      -0.81      40.59      13.74
C       6.23      18.43       4.45
C       6.34      34.86       5.04
C       4.03      27.16       5.93
C       4.04      31.76      -3.29
C       3.81      34.94      20.60
C       8.57      40.58      -1.86
C       1.56      31.78      12.28
C       1.56      21.51      12.85
C       9.19      28.26       8.69
C       9.12      20.12      17.67
C       9.13      18.64      -2.98
C      13.82      14.93       0.81
C       6.78      33.59       9.96
C       6.76      18.56      12.46
C       4.44      14.87      16.44
C      11.43      20.16       2.08
C      11.55      31.98       4.75
C      -2.28      38.74      14.69
C       4.78      20.21       5.57
C       4.90      35.00       2.94
C       2.50      25.36       6.89
C       2.53      33.49      -2.20
C       2.35      34.99      18.52
C       7.15      38.70      -0.89
C       0.09      33.54      13.40
C       0.08      21.57      10.78
C       8.74      29.81       6.91
C       8.66      17.81      17.21
C       8.60      19.35      -0.76
C      13.32      16.53      -0.88
C       6.34      31.29       9.45
C       6.30      19.27      14.70
C       3.93      16.50      14.76
C      10.94      17.88       1.54
C      11.01      32.63       6.99
C      -1.79      37.11      16.36
C       5.29      22.50       6.07
C       5.40      34.36       0.70
C       2.95      23.76       8.62
C       2.97      35.79      -1.69
C       2.86      34.32      16.27
C       7.68      37.10       0.81
C       0.57      35.83      13.91
C       0.54      20.88       8.53
C       7.54      30.25       6.08
C       7.45      16.88      17.26
C       7.38      19.86      -0.01
C      12.15      16.91      -1.77
C       5.17      30.32       9.53
C       5.13      19.83      15.49
C       2.74      16.88      13.89
C       9.76      16.93       1.64
C       9.79      33.16       7.74
C      -0.61      36.70      17.23
C       6.50      23.42       6.03
C       6.57      33.77      -0.08
C       4.15      23.30       9.44
C       4.14      36.76      -1.77
C       4.06      33.77      15.51
C       8.90      36.70       1.64
C       1.76      36.77      13.84
C       1.76      20.41       7.73
N       8.35      28.74       7.82
N       8.28      19.14      17.70
N       8.26      19.14      -2.16
N      12.95      15.42      -0.02
N       5.94      32.60       9.95
N       5.91      19.05      13.31
N       3.58      15.37      15.61
N      10.57      19.19       2.07
N      10.68      32.44       5.58
N      -1.42      38.23      15.51
N       5.64      21.18       5.55
N       5.77      34.53       2.10
N       3.34      24.87       7.76
N       3.37      34.48      -2.21
N       3.22      34.51      17.68
N       8.02      38.23      -0.05
N       0.93      34.52      13.38
N       0.93      21.08       9.93
O       6.71      26.63       8.79
O       6.77      34.48      -4.20
O       6.62      32.83      18.76
O      11.36      40.06       0.89
O       4.28      34.48      11.31
O       4.29      19.34      10.99
O       1.98      39.99      16.49
O       9.00      21.08       3.51
O       9.13      32.76       3.20
O       0.16      40.43      14.64
O       7.24      19.26       4.16
O       7.31      34.16       4.46
O       4.94      27.05       6.90
O       4.95      32.66      -3.68
O       4.79      34.23      20.03
O       9.54      40.46      -0.95
O       2.51      32.65      11.90
O       2.53      20.79      12.27
O       6.42      29.63       6.28
O       6.35      17.36      17.75
O       6.31      20.11      -0.70
O      11.07      16.20      -1.68
O       4.08      30.75      10.08
O       4.03      20.05      14.85
O       1.67      16.17      14.01
O       8.69      17.37       2.22
O       8.72      33.36       7.05
O       0.47      37.40      17.13
O       7.57      22.97       5.46
O       7.64      33.48       0.59
O       5.24      23.99       9.34
O       5.25      36.32      -2.27
O       5.12      33.51      16.19
O       9.96      37.43       1.51
O       2.84      36.32      13.28
O       2.82      20.11       8.40
O       7.63      31.17       5.24
O       0.50      15.70      16.83
O       7.41      20.02       1.24
O       5.20      17.89      -2.56
O       5.27      29.15       9.09
O       5.24      20.06      16.72
O       2.79      17.86      13.10
O       9.84      15.77       1.18
O       2.81      33.38       8.98
O       6.33      35.73      18.01
O       6.45      24.58       6.52
O       6.49      33.58      -1.32
O       4.07      22.29      10.19
O      11.05      37.93      -1.34
O       4.00      33.60      14.26
O       8.87      35.70       2.40
O       1.70      37.92      14.32
O       8.74      20.33       6.48
