36

H       7.62       9.39       2.59
H       5.89       9.08       2.52
H       8.09       6.96       2.91
H       6.38       6.56       2.66
H       9.34       8.88       7.20
H       8.43       8.19       8.56
H       9.28       5.87       7.86
H      10.31       6.65       6.66
H       3.54       6.27       6.23
H       4.19       6.43       7.87
H       3.96       8.99       7.58
H       2.97       8.67       6.15
C       6.97       8.45       0.79
C       6.87       8.64       2.29
C       7.07       7.32       3.04
C       7.93       7.71       5.31
C       5.55       7.17       4.96
C       6.45       7.41       7.26
C       8.84       7.98       7.57
C       9.81       6.80       7.63
C      10.88       7.01       8.68
C       4.07       6.93       6.91
C       3.30       8.24       7.11
C       2.10       8.07       8.04
N       6.83       7.42       4.49
N       5.41       7.15       6.35
N       7.68       7.70       6.68
O      11.81       6.12       8.71
O      10.81       7.99       9.47
O       2.22       7.12       8.92
O       1.12       8.84       7.93
O       6.98       9.43      -0.01
O       7.07       7.23       0.38
O       9.04       7.94       4.85
O       4.60       6.96       4.21
O       6.27       7.37       8.47
