36

O      12.93       4.97       2.85
O      13.92       3.10       2.09
O      22.52       3.96       2.64
O      23.61       2.25       3.63
O      17.76       1.66      11.58
O      17.67       3.85      11.19
O      15.69       3.14       6.71
O      20.14       4.13       7.35
O      18.47       3.72       3.09
H      17.12       1.70       8.97
H      18.85       2.01       9.04
H      16.65       4.13       8.66
H      18.36       4.53       8.90
H      15.40       2.21       4.36
H      16.31       2.90       3.00
H      15.46       5.22       3.70
H      14.43       4.44       4.91
H      21.20       4.82       5.34
H      20.54       4.66       3.69
H      20.78       2.10       3.98
H      21.77       2.42       5.41
C      17.77       2.64      10.77
C      17.87       2.45       9.27
C      17.67       3.77       8.53
C      16.81       3.38       6.25
C      19.19       3.92       6.60
C      18.29       3.68       4.31
C      15.90       3.11       3.99
C      14.93       4.29       3.94
C      13.86       4.08       2.88
C      20.67       4.16       4.65
C      21.44       2.85       4.45
C      22.64       3.02       3.52
N      17.90       3.67       7.07
N      19.32       3.94       5.21
N      17.05       3.39       4.88
