15

O       3.34       0.95       7.30
O       5.11      -0.17       6.38
O       3.13      -4.69      11.66
O       5.13      -5.23      10.73
C       5.17      -1.96       8.44
H       6.10      -1.81       7.90
C       4.09      -1.08       8.29
C       2.93      -2.41       9.94
C       4.03      -3.26       9.99
C       2.95      -1.31       9.07
C       4.11      -4.50      10.86
C       4.18       0.00       7.24
H       2.10      -0.63       8.98
H       2.07      -2.62      10.56
N       5.13      -3.03       9.24
