15

C       2.28       5.55       3.01
C       2.13       8.80       0.25
C       2.20       4.31       3.87
N       1.18       5.78       2.26
O       2.96       9.76       0.33
O       1.22       8.63      -0.61
O       3.14       4.16       4.72
O       1.21       3.54       3.70
H       0.22       6.99       0.91
H       4.21       8.17       2.00
H       4.24       6.20       3.60
C       1.14       6.84       1.45
C       2.23       7.72       1.30
C       3.36       7.50       2.09
C       3.38       6.41       2.97
