15

H       0.92      -3.18      12.17
C      -2.89      -3.12      12.54
C      -2.35      -3.77      11.42
C      -0.96      -3.82      11.28
C      -0.16      -3.16      12.21
C      -0.77      -2.49      13.27
C      -3.26      -4.41      10.41
C       0.05      -1.70      14.27
O      -4.52      -4.27      10.62
H      -0.53      -4.38      10.45
O       1.24      -1.48      14.07
O      -2.70      -5.00       9.44
H      -3.96      -3.10      12.70
N      -2.12      -2.50      13.44
O      -0.63      -1.29      15.33
