36

H       3.70      16.46      14.21
N       6.53      10.23      20.43
N       6.08       8.29      18.46
N       4.61      11.15      16.81
N       3.09      13.14      14.19
N       4.28      15.16      15.74
N       2.45       5.91      12.52
H       7.67       8.76      21.39
H       7.19       7.02      19.70
H       5.38      11.51      19.24
H       4.64       7.77      16.58
H       4.89       6.69      14.72
H       4.17       4.92      13.10
H       0.80       7.05      12.03
C       7.06       9.00      20.52
C       6.80       8.03      19.55
H       2.59      14.66      12.86
C       5.62       9.55      18.32
H       4.81      13.63      17.06
C       5.82      10.51      19.32
C       4.84       9.85      17.10
C       4.40       8.79      16.30
C       3.63       9.08      15.16
C       3.20       7.99      14.26
C       3.97       6.82      14.15
C       3.57       5.82      13.27
C       2.04       8.08      13.48
C       3.35      10.43      14.88
C       3.89      11.42      15.71
C       3.74      12.85      15.34
C       1.70       7.02      12.64
C       3.07      14.42      13.81
C       4.31      13.88      16.12
C       3.68      15.43      14.56
H       1.40       8.95      13.53
H       2.80      10.73      14.00
