36

C       2.73      10.19      20.49
N       1.65      10.93      18.49
N       2.25       8.94      20.36
C       1.51       8.67      19.28
C       2.39      11.19      19.58
C       1.25       9.66      18.32
C       0.47       9.37      17.10
C      -1.16      11.25      14.27
C      -0.37      12.41      14.17
C      -0.72      13.40      13.27
C      -2.59      12.23      12.60
C       0.01      10.43      16.31
C      -1.03       8.81      14.88
C      -0.49       7.80      15.70
C      -0.64       6.37      15.33
H       3.38      10.40      21.34
H       2.70      12.22      19.75
H       1.09       7.67      19.19
H       0.25      11.45      16.60
C      -2.30      11.18      13.45
H       0.54      12.52      14.77
H      -0.10      14.29      13.14
H      -2.96      10.32      13.50
H      -1.60       8.50      14.00
H      -3.48      12.22      11.97
C      -0.06       5.36      16.11
H       0.45       5.60      17.04
C      -0.72       3.80      14.58
H      -0.72       2.76      14.24
C      -1.35       4.80      13.83
H      -1.88       4.55      12.91
N       0.24       8.07      16.80
N      -1.31       6.08      14.20
N      -0.09       4.07      15.74
N      -1.81      13.33      12.48
C      -0.75      10.15      15.17
