20

O       3.37       9.23      11.64
O       3.71      11.76      11.16
O       5.70      10.05      11.42
O       1.80      10.38      13.61
P       4.28      10.57      11.82
P       4.05      11.06      18.23
O       4.98      12.39      18.40
H       1.91      10.66      12.68
O       4.62       9.90      18.92
H       6.37      11.08      13.95
O       2.57      11.52      18.57
O       6.50      11.15      16.43
H       6.38      10.92      17.38
H       1.94      10.49      16.12
C       4.24      10.70      13.61
C       2.99      10.58      14.27
C       5.39      10.92      14.37
C       4.07      10.86      16.43
C       5.31      10.98      15.76
C       2.92      10.64      15.66
