20

P       0.15       5.70      10.68
O       0.79       3.76       4.15
P      -0.08       5.12       4.31
O       0.49       6.26       3.58
O      -1.54       4.61       3.96
O       2.38       4.99       6.10
H      -2.20       5.54       9.85
H       2.22       5.12       8.62
H       2.27       5.30       5.18
H      -2.21       5.65       6.41
C       0.09       5.47       8.89
C      -1.15       5.59       8.24
C       1.25       5.25       8.14
C      -0.07       5.30       6.11
C       1.18       5.19       6.75
C      -1.23       5.52       6.86
O      -0.75       7.06      10.87
O      -0.44       4.56      11.45
O       1.64       6.08      10.97
O      -2.34       5.76       8.91
