56

C       7.21       3.32      12.86
C       7.12       2.49      11.73
C       5.99       1.65      11.55
C       8.14       2.48      10.76
C       5.90       0.84      10.43
C       8.03       1.68       9.64
C       6.90       0.84       9.43
C       6.82       0.00       8.24
C       6.31      -1.33       8.35
C       7.27       0.58       7.02
C       6.13      -2.13       9.53
C       7.35       1.98       6.67
C       5.63      -3.36       9.12
C       5.50      -3.30       7.72
C       7.81       2.05       5.34
C       8.02       0.70       4.91
C       8.65       0.18       3.74
C       8.81       0.74       2.43
C       9.42      -0.23       1.65
C       9.65      -1.37       2.50
H       5.20       1.67      12.29
H       9.02       3.10      10.90
H       5.03       0.22      10.28
H       8.83       1.65       8.91
H       6.40      -1.85      10.54
H       7.03       2.81       7.30
H       5.41      -4.22       9.75
H       5.15      -4.06       7.03
H       7.89       2.93       4.72
H       8.47       1.71       2.12
H       9.70      -0.13       0.61
C      11.66      -5.42       4.07
C      11.33      -4.84       2.82
C      11.31      -4.46       5.06
C      10.80      -3.55       3.10
H      12.29      -6.30       4.23
C      10.32      -2.57       2.16
C      10.58      -2.82       0.73
H      11.48      -5.29       1.85
H      11.41      -4.52       6.14
C      11.85      -3.27       0.28
C       9.57      -2.67      -0.23
H      12.65      -3.36       1.00
C      12.07      -3.57      -1.05
H       8.59      -2.35       0.10
C       9.78      -2.95      -1.57
H      13.05      -3.90      -1.38
C      11.04      -3.41      -2.00
H       8.98      -2.84      -2.30
C      11.29      -3.70      -3.36
N      11.53      -3.96      -4.48
N       7.27       4.02      13.81
N       5.90      -2.09       7.25
N       7.66      -0.16       5.92
N       9.17      -1.08       3.77
N      10.80      -3.36       4.48
