140

Cd       7.63       7.09       6.15
Cd       0.46      -0.99      10.39
Cd       5.50       4.77       3.65
Cd      -1.03      -2.56      18.82
Cd      -2.65      -1.67      13.32
Cd       4.51       6.41       9.08
Cd      -0.53       0.65      15.82
Cd       6.01       7.98       0.65
H       6.56      -0.70       8.49
H      -1.52       2.97       8.14
H       2.58       7.17       6.12
H       4.91       2.64       6.27
H       3.08       1.72       7.35
H       1.00       0.40       7.00
H       2.92       6.41       1.26
H      -0.59       3.97       1.66
H       5.85      -0.42       3.61
H      -0.49       7.84       3.53
H       1.03      -0.56       2.39
H       2.17       1.63       2.74
H      -1.59       6.12      10.98
H       6.50       2.45      11.32
H       2.39      -1.75      13.35
H       0.06       2.79      13.20
H       1.90       3.70      12.11
H       3.98       5.02      12.47
H       2.05      -0.99      18.20
H       5.56       1.45      17.80
H      -0.88       5.84      15.85
H       5.46      -2.41      15.93
H       3.94       5.98      17.08
H       2.80       3.79      16.73
C       5.04       8.27       6.45
C       6.63       0.30       8.08
C       4.40       0.05       6.98
C       7.88       2.38       7.92
C       7.77       1.06       8.37
C       5.59       0.85       7.31
C       4.48      -1.33       6.64
C       2.53       8.22       6.41
C       5.70       2.18       6.87
C       6.83       2.94       7.16
C       6.91       4.34       6.66
C       2.05      -1.43       6.54
C      -1.43       0.40       9.13
C       3.13       0.67       7.06
C       1.97      -0.06       6.87
C       3.29      -1.80       9.95
C       0.02       8.05       6.35
C       4.19       7.29       3.28
C       1.93       6.27       1.69
C       2.03       8.53       2.77
C      -0.06       4.89       1.88
C       1.25       5.09       1.41
C       1.32       7.28       2.46
C       3.41       8.57       3.10
C       4.81      -0.47       3.32
C       0.00       7.08       2.92
C      -0.68       5.90       2.65
C       8.21       5.73       3.16
C       4.08       0.73       3.20
C       1.97       4.05       0.64
C       2.08      -0.53       2.68
C       2.71       0.69       2.86
C      -0.74       4.96      19.22
C       4.75       2.05       3.40
C      -0.07      -2.85      13.01
C      -1.66       5.12      11.39
C       0.57       5.37      12.48
C      -2.90       3.04      11.55
C      -2.79       4.37      11.09
C      -0.61       4.58      12.16
C       0.49       6.75      12.82
C       2.44      -2.80      13.05
C      -0.72       3.24      12.60
C      -1.86       2.49      12.31
C      -1.93       1.08      12.81
C       2.92       6.85      12.93
C       6.40       5.03      10.33
C       1.84       4.75      12.40
C       3.00       5.48      12.59
C       1.69       7.22       9.52
C       4.96      -2.63      13.11
C       0.78      -1.87      16.19
C       3.04      -0.85      17.77
C       2.95      -3.11      16.70
C       5.03       0.53      17.58
C       3.73       0.33      18.06
C       3.65      -1.86      17.00
C       1.56      -3.14      16.37
C       0.17       5.89      16.14
C       4.97      -1.66      16.54
C       5.65      -0.48      16.82
C      -3.24      -0.31      16.30
C       0.90       4.70      16.26
C       3.00       1.37      18.83
C       2.89       5.95      16.79
C       2.26       4.73      16.60
C       5.72       0.46       0.25
C       0.23       3.37      16.06
O       2.66      -0.77      10.36
O       4.55      -1.85       9.87
O       5.83       8.69       5.57
O       5.38       7.28       7.21
O      -0.32      -1.56       6.38
O      -0.34       1.02       9.41
O       6.00       4.77       5.88
O       7.86       5.06       7.09
O      -1.59      -0.83       9.48
O       0.07       6.81       6.19
O      -1.82       5.49      18.79
O      -0.57       3.71      19.27
O       3.85       6.46       4.17
O       5.19       7.04       2.51
O       3.99       3.10       3.42
O       1.44       2.92       0.38
O       7.73       6.63       3.92
O       7.56       4.71       2.77
O       3.16       4.33       0.25
O       6.00       2.11       3.54
O       2.31       6.19       9.10
O       0.43       7.27       9.59
O      -0.86      -3.27      13.90
O      -0.40      -1.86      12.26
O       5.30       6.98      13.08
O       5.32       4.40      10.05
O      -1.02       0.65      13.59
O      -2.89       0.36      12.37
O       6.57       6.25       9.99
O       4.91      -1.39      13.27
O       6.79      -0.07       0.68
O       5.54       1.71       0.20
O       1.12      -1.04      15.30
O      -0.22      -1.61      16.96
O       0.98       2.32      16.05
O       3.54       2.50      19.09
O      -2.75      -1.21      15.55
O      -2.59       0.72      16.69
O       1.81       1.09      19.21
O      -1.02       3.31      15.93
