33

C      14.85      13.46      24.57
C       8.43      13.66      23.26
H       9.56      15.84      26.30
H      11.47      16.73      21.76
O       8.60      13.87      21.97
O      11.44      12.24      25.98
O      12.09      15.47      24.61
O      14.34      13.66      23.36
O      14.13      13.67      25.65
O       9.60      16.61      25.67
O       7.18      17.83      26.99
O      11.29      14.28      19.82
O       6.99      19.34      22.87
O       9.75      20.31      23.40
C       7.90      18.33      27.98
O      13.36      14.59      20.81
O      11.25      15.91      22.27
O       6.16      17.79      24.34
O       8.79      16.95      23.31
O       9.20      18.16      28.02
C      12.61      14.17      19.80
O      11.86      18.98      26.09
C      12.17      11.29      26.49
Zn      12.15      14.05      25.71
Zn      12.82      14.86      22.78
Zn      10.44      16.23      23.97
Zn      10.17      14.73      21.35
Zn       8.91      18.68      22.82
Zn       7.84      17.21      25.10
Zn      10.23      18.19      26.41
C       6.00      18.86      23.61
C       9.44      20.79      24.59
C      12.35      18.90      24.88
