33

C      14.67       3.56      11.41
C      18.47       4.84      11.38
C      16.01       4.94       6.95
C      12.15       6.44      10.23
H      14.06       8.48      12.89
H      15.80       8.32       8.24
O      14.73       5.23       7.10
O      16.94       5.63       7.58
O      12.22       6.62       8.94
O      14.95       4.21      12.51
O      16.24       7.27      11.22
O      17.94       4.90      10.17
O      17.77       5.16      12.45
O      14.26       9.14      12.19
O      12.19      10.73      13.50
O      12.24      12.18       9.13
O      15.04      12.72       9.73
O      15.42       7.64       8.85
O      11.17      11.06      10.83
O      13.50       9.53       9.80
O      14.29      11.01      14.41
O      16.97      11.06      12.21
Zn      15.91       5.90      12.37
Zn      16.72       6.33       9.47
Zn      14.86       8.40      10.52
Zn      13.93       6.73       8.11
Zn      14.00      11.18       9.19
Zn      12.69      10.10      11.59
Zn      15.24      10.59      12.76
C      11.24      12.06       9.99
C      14.77      13.19      10.92
C      12.98      11.19      14.46
C      17.41      10.71      11.02
