11

Cu      11.25       9.75       4.56
C       9.94       7.93       2.60
C      10.63       7.55       5.90
C      12.57      11.68       6.41
O       9.91       8.54       5.43
C      10.63      10.84       7.32
C      12.01       8.68       1.88
N      11.51      10.85       6.31
C      11.88      11.89       3.18
N      11.03       8.70       2.81
O      12.62      10.93       3.67
