13

H       2.53       3.24       3.94
H       1.56       1.39       5.31
C       1.49       4.26       1.59
C       1.58       2.79       3.66
C       1.04       1.76       4.43
C       0.90       3.22       2.51
C      -0.80       1.59       3.01
C      -0.33       2.62       2.21
H      -0.90       2.94       1.34
H      -1.73       1.06       2.81
N      -0.13       1.17       4.10
O       2.75       4.48       1.76
O       0.77       4.80       0.72
