13

O       8.35       0.45       7.03
O      10.56       0.90       6.73
H       7.24       2.46       8.16
H       7.24       4.33       9.86
H      11.50       2.12       8.79
H      11.31       3.96      10.51
C       9.41       1.07       7.29
C       9.38       2.15       8.35
C       8.16       2.77       8.65
C       8.15       3.80       9.59
C      10.54       2.57       9.02
C      10.44       3.59       9.97
N       9.27       4.19      10.25
