96

Cu       0.63       7.93       0.24
Cu       0.61       0.58       7.90
Cu       7.96       0.31       0.26
Cu       6.83      13.89      13.29
Cu      14.07      13.52       5.62
Cu      14.19       6.22      13.29
H      14.22       6.26       9.01
H       9.27       0.30       5.87
H       6.29       9.05       0.14
H       7.87       0.34       4.53
H      14.04       4.84       7.65
H       4.88       7.69       0.10
H       0.57       7.84       4.52
H       4.85       0.53       7.63
H       7.89       4.57       0.11
H       6.27       0.58       8.99
H      14.22       9.25       5.87
H       9.30       5.93       0.13
H       1.10      10.41       9.96
H      10.44       0.56       9.98
H      10.45      10.05       0.25
H       4.26      13.60       3.54
H      13.65       3.69       3.55
H       4.40       4.15      13.31
C       0.91       7.93      11.06
C       0.71       7.28       8.65
C       0.87       8.29       9.61
C      11.41       0.33       7.45
C       8.96       0.39       6.91
C       9.98       0.42       7.87
C       7.96      11.12       0.13
C       7.32       8.70       0.17
C       8.32       9.67       0.19
C       6.76      13.66       2.47
C       6.84       0.32       4.88
C       5.84       0.18       3.91
C      13.76       2.72       6.07
C      13.99       5.15       6.61
C      13.83       4.15       5.65
C       3.40       6.69      13.45
C       5.20       6.65       0.05
C       4.83       6.26      13.49
C      13.88       6.17       2.46
C      14.05       6.81       4.88
C      13.90       5.81       3.91
C       2.73       0.27       6.06
C       5.17       0.42       6.60
C       4.17       0.28       5.63
C       6.88       3.09      13.48
C       6.87       4.92       0.05
C       6.51       4.54      13.50
C       7.96       0.60      11.06
C       7.30       0.55       8.64
C       8.31       0.58       9.61
C       0.93      11.38       7.44
C       0.72       8.94       6.91
C       0.88       9.95       7.86
C      11.43       7.52       0.15
C       8.99       6.97       0.16
C      10.00       7.94       0.20
C       0.65       7.58       7.27
C       0.97       9.63       9.22
C       7.60       0.47       7.27
C       9.66       0.53       9.23
C       7.63       7.33       0.16
C       9.67       9.30       0.23
C       6.53       0.41       6.24
C       5.04      13.72       4.28
C      14.09       6.51       6.25
C      13.77       4.47       4.29
C       6.56       6.29       0.09
C       5.17       4.91      13.42
O       1.24       8.87      11.87
O      14.18       6.73      11.38
O      12.28       0.55       8.36
O      12.19      13.61       6.23
O       8.91      11.96       0.32
O       7.38      12.00      13.45
O       5.82      13.39       1.64
O       7.45       0.27       2.17
O      13.47       1.86       5.16
O       0.44       2.45       7.29
O       2.54       5.78      13.19
O       2.50       7.34       0.12
O      13.59       5.23       1.64
O       0.58       7.38       2.15
O       2.41      13.53       5.16
O       2.49       0.56       7.28
O       5.95       2.26      13.19
O       7.45       2.21       0.19
O       8.90       0.89      11.88
O       7.29      13.88      11.37
O       1.25      12.23       8.34
O      14.20      11.64       6.23
O      12.31       8.43       0.33
O      12.32       6.86      13.49
