112

Mg       4.07       4.64       0.43
Mg       5.26       1.39       0.86
Mg       0.42      11.39       7.92
Mg       9.27       8.14       7.49
Mg       4.90       8.86      16.27
Mg       3.71      12.11      15.84
Mg       8.56       2.11       8.78
Mg      -0.30       5.36       9.21
H       2.83      10.92       4.39
H       3.93      10.14       2.35
H       6.22       6.10       3.16
H       7.38       6.85       5.17
H       1.65       4.17       3.96
H       0.56       3.39       6.00
H       8.32      12.85       5.19
H       7.16       0.10       3.18
H       6.14       2.58      12.31
H       5.04       3.35      14.35
H       2.76       7.40      13.54
H       1.60       6.65      11.53
H       7.32       9.32      12.74
H       8.42      10.10      10.70
H       0.66       0.65      11.51
H       1.81      13.40      13.52
C       1.61       9.14       6.15
C       2.42       9.01       4.90
C       3.54       8.23       2.86
C       4.09       7.41       1.73
C       6.10       3.39       2.49
C       6.64       4.18       3.62
C       7.79       4.91       5.66
C       8.51       5.00       6.93
C       2.91      10.02       4.15
C       3.55       9.57       2.98
C       6.62       5.52       3.76
C       7.29       5.96       4.93
C       2.88       2.39       2.20
C       2.07       2.26       3.45
C       0.94       1.48       5.49
C       0.40       0.67       6.62
C       8.44      10.14       5.86
C       7.89      10.93       4.73
C       6.75      11.66       2.69
C       6.02      11.74       1.42
C       1.58       3.28       4.20
C       0.94       2.82       5.37
C       7.91      12.27       4.59
C       7.25      12.70       3.42
C       7.37       4.35      10.55
C       6.56       4.49      11.80
C       5.43       5.27      13.84
C       4.88       6.08      14.97
C       2.87      10.11      14.21
C       2.33       9.32      13.08
C       1.18       8.58      11.04
C       0.46       8.50       9.77
C       6.06       3.47      12.55
C       5.43       3.92      13.72
C       2.35       7.97      12.94
C       1.69       7.54      11.77
C       6.09      11.10      14.50
C       6.90      11.23      13.25
C       8.03      12.02      11.21
C       8.58      12.83      10.08
C       0.54       3.36      10.84
C       1.08       2.57      11.97
C       2.23       1.84      14.01
C       2.95       1.75      15.28
C       7.40      10.22      12.50
C       8.03      10.67      11.33
C       1.06       1.22      12.11
C       1.73       0.79      13.28
S       2.73       7.49       4.18
S       7.44       3.40       4.92
S       1.76       0.74       4.17
S       7.09      10.15       3.43
S       6.24       6.01      12.52
S       1.53      10.10      11.78
S       7.22      12.76      12.53
S       1.88       3.35      13.27
O       3.77       6.22       1.69
O       8.76       3.98       7.62
O       6.09       2.14       2.59
O       8.90       6.13       7.33
O       1.02       8.11       6.57
O       1.57      10.28       6.66
O       4.81       8.00       0.93
O       5.70       4.01       1.48
O       0.71      12.97       6.66
O       5.77      10.73       0.73
O       8.45       8.89       5.76
O       5.63      12.88       1.02
O       3.47       1.36       1.78
O       2.92       3.53       1.69
O      -0.32       1.25       7.42
O       8.83      10.75       6.87
O       5.20       7.28      15.01
O       0.21       9.52       9.08
O       2.88      11.35      14.11
O       0.07       7.36       9.37
O       7.95       5.39      10.13
O       7.40       3.22      10.04
O       4.16       5.50      15.77
O       3.27       9.49      15.22
O       8.26       0.53      10.04
O       3.20       2.77      15.97
O       0.53       4.60      10.94
O       3.34       0.61      15.68
O       5.51      12.14      14.92
O       6.06       9.97      15.01
O       9.30      12.25       9.28
O       0.14       2.74       9.83
