34

N       1.40      17.76      13.31
N       6.06      19.28      14.41
N       3.92      16.37      15.93
N       2.77      21.13      14.95
H       2.36      17.71      10.90
C       4.40      18.40      11.19
C       3.12      18.03      11.61
C       2.80      18.09      12.96
C       4.74      18.46       9.74
H       6.36      19.04      11.83
C       5.35      18.78      12.14
C       5.00      18.85      13.48
C       3.70      18.55      13.94
C       3.32      18.73      15.38
C       3.42      17.70      16.33
C       3.00      17.85      17.65
C       2.85      19.97      15.85
C       2.48      20.17      17.18
C       2.52      19.10      18.08
C       1.99      19.29      19.46
H       3.05      17.00      18.33
H       2.13      21.14      17.50
O       5.88      18.96       9.46
O       3.89      18.03       8.89
O       1.69      20.47      19.86
O       1.75      18.26      20.20
O       1.12      17.64      14.51
O       0.60      17.63      12.38
O       5.74      19.94      15.41
O       7.22      18.96      14.10
O       3.64      15.40      16.65
O       4.60      16.31      14.89
O       2.76      22.25      15.46
O       2.74      20.90      13.72
