624

H      11.76       0.57       1.81
H       9.37       0.46       1.82
H      11.75      29.38      57.61
H       9.36      29.28      57.61
H       7.44      27.97      58.66
H       5.05      27.94      58.63
H       7.43       1.75       0.73
H       5.04       1.73       0.69
H       4.29      29.04       2.31
H       2.49      28.99       4.09
H       0.75       0.21       0.57
H      28.93       0.09      58.73
H       4.34       0.31      56.87
H       2.54       0.32      55.08
H      29.63      27.83      54.39
H      29.59      27.85      52.00
H      -0.02       2.12      54.42
H      29.84       2.14      52.03
H      27.10      29.72      55.09
H      25.30      29.71      56.88
H      27.12       0.31       4.18
H      25.33       0.33       2.38
H      24.59       2.10      59.56
H      22.20       2.09      59.60
H      24.61      27.81      59.56
H      22.22      27.79      59.55
H      20.34      28.24       1.13
H      17.97      28.22       1.16
H      17.86       1.56      58.26
H      20.23       1.57      58.22
H      28.57      27.94       4.83
H      28.48      27.91       7.19
H       0.21       1.67       9.34
H       0.31       1.57      11.71
H      29.30      27.39      11.58
H      29.37      27.44       9.21
H       1.17       1.31       7.32
H       1.11       1.43       4.95
H       1.31       1.45      50.05
H       1.25       1.46      47.68
H      28.09      28.57      50.12
H      28.02      28.58      47.75
H       0.53      17.89      31.75
H       0.42      20.28      31.76
H      29.27      17.85      27.70
H      29.16      20.24      27.71
H      27.84      22.14      28.78
H      27.81      24.54      28.75
H       1.70      22.22      30.66
H       1.66      24.61      30.62
H      28.99      25.38      32.26
H      28.95      27.18      34.04
H       0.14      28.90      30.50
H      29.86       0.66      28.80
H       0.14      25.24      26.97
H       0.12      27.03      25.16
H      27.62      29.84      24.50
H      27.59      29.80      22.11
H       1.91      29.58      24.46
H       1.89      29.55      22.07
H      29.53       2.47      25.15
H      29.55       4.28      26.93
H       0.27       2.55      34.09
H       0.27       4.33      32.28
H       1.97       5.00      29.61
H       1.97       7.39      29.65
H      27.68       5.00      29.61
H      27.67       7.39      29.61
H      28.19       9.31      31.04
H      28.18      11.68      31.08
H       1.46      11.74      28.33
H       1.46       9.37      28.29
H      27.90       1.10      34.76
H      27.89       1.20      37.13
H       1.65      29.47      39.26
H       1.56      29.37      41.63
H      27.39       0.39      41.52
H      27.42       0.32      39.15
H       1.28      28.51      37.24
H       1.39      28.56      34.87
H       1.17      28.06      20.18
H       1.15      28.00      17.81
H      28.28       1.28      20.14
H      28.25       1.23      17.77
H       3.54      29.22      15.34
H       4.34      27.86      14.53
H       2.99      27.57      15.62
H       3.07       0.43      12.96
H       2.57      29.28      11.64
H       4.10      29.01      12.43
H       3.15      26.47      12.90
H       1.67      26.97      12.11
H       1.60      26.33      13.75
H      27.79       0.32      15.71
H      29.22      26.16      45.28
H      27.86      25.37      44.49
H      27.57      26.73      45.57
H       0.42      26.62      42.90
H      29.28      27.12      41.58
H      29.00      25.60      42.39
H      26.46      26.56      42.86
H      26.97      28.02      42.05
H      26.32      28.11      43.70
H       0.34       1.92      45.62
H      15.59       3.75      59.47
H      14.57       4.67      58.36
H      15.48       3.28      57.77
H      13.60       3.22       1.23
H      12.04       2.82       0.48
H      12.81       4.35       0.13
H      13.25       2.12      56.88
H      12.61       3.70      57.32
H      11.81       2.26      57.90
H      15.87      27.87       0.26
H       3.66      14.01      29.55
H       4.57      15.03      28.44
H       3.18      14.11      27.84
H       3.17      16.05      31.15
H       2.78      17.61      30.41
H       4.31      16.85      30.05
H       2.02      16.35      26.96
H       3.60      16.99      27.40
H       2.16      17.78      27.98
H      27.83      13.78      30.19
H       3.71      23.55      56.66
H       1.32      23.44      56.67
H       3.76      22.38      52.61
H       1.37      22.27      52.61
H      29.37      20.96      53.66
H      26.98      20.94      53.63
H      29.31      24.73      55.58
H      26.92      24.70      55.54
H      26.16      22.10      57.16
H      24.36      22.04      58.94
H      22.63      23.19      55.42
H      20.94      23.01      53.73
H      26.27      23.23      51.87
H      24.47      23.24      50.08
H      21.63      20.83      49.39
H      21.59      20.85      47.00
H      21.91      25.04      49.42
H      21.85      25.06      47.03
H      19.10      22.72      50.09
H      17.31      22.71      51.88
H      19.07      23.29      59.03
H      17.28      23.31      57.23
H      16.59      25.02      54.56
H      14.20      25.01      54.60
H      16.61      20.80      54.56
H      14.22      20.78      54.55
H      12.29      21.29      55.98
H       9.92      21.27      56.01
H       9.86      24.48      53.26
H      12.23      24.49      53.22
H      20.52      20.99      59.68
H      20.49      20.91       2.19
H      22.14      24.59       4.34
H      22.24      24.49       6.71
H      21.31      20.39       6.58
H      21.37      20.43       4.21
H      23.10      24.23       2.32
H      22.99      24.41      59.80
H      23.24      24.37      45.05
H      23.18      24.38      42.68
H      20.09      21.56      45.12
H      20.03      21.57      42.75
H      22.46      10.88      26.75
H      22.35      13.27      26.76
H      21.28      10.84      22.70
H      21.17      13.23      22.71
H      19.84      15.14      23.78
H      19.81      17.53      23.75
H      23.63      15.22      25.66
H      23.59      17.61      25.62
H      21.00      18.37      27.26
H      20.96      20.18      29.04
H      22.07      21.90      25.50
H      21.86      23.58      23.80
H      22.07      18.24      21.97
H      22.05      20.02      20.16
H      19.63      22.84      19.50
H      19.60      22.80      17.11
H      23.84      22.57      19.46
H      23.82      22.55      17.07
H      21.53      25.39      20.15
H      21.55      27.20      21.93
H      22.20      25.47      29.09
H      22.20      27.25      27.28
H      23.90      27.92      24.61
H      23.90       0.39      24.65
H      19.68      27.92      24.61
H      19.68       0.38      24.61
H      20.19       2.31      26.04
H      20.18       4.68      26.08
H      23.39       4.73      23.33
H      23.39       2.36      23.29
H      19.91      24.03      29.76
H      19.89      24.12      32.13
H      23.58      22.47      34.26
H      23.49      22.37      36.63
H      19.39      23.31      36.52
H      19.43      23.24      34.15
H      23.21      21.50      32.24
H      23.32      21.56      29.87
H      23.10      21.06      15.18
H      23.08      21.00      12.81
H      20.28      24.20      15.14
H      20.26      24.15      12.77
H      25.47      22.22      10.34
H      26.27      20.86       9.53
H      24.92      20.56      10.62
H      25.00      23.35       7.96
H      24.50      22.28       6.64
H      26.03      22.01       7.43
H      25.08      19.47       7.90
H      23.60      19.97       7.11
H      23.53      19.32       8.75
H      19.79      23.24      10.71
H      21.22      19.16      40.28
H      19.86      18.37      39.49
H      19.57      19.72      40.57
H      22.35      19.61      37.90
H      21.28      20.12      36.58
H      21.00      18.59      37.39
H      18.47      19.55      37.86
H      18.97      21.02      37.05
H      18.33      21.10      38.70
H      22.27      24.84      40.62
H       7.59      26.67      54.47
H       6.57      27.59      53.36
H       7.49      26.20      52.77
H       5.55      26.19      56.08
H       3.99      25.80      55.33
H       4.75      27.33      54.98
H       5.26      25.04      51.88
H       4.61      26.62      52.32
H       3.82      25.18      52.90
H       7.82      20.92      55.11
H      25.59       7.00      24.55
H      26.50       8.03      23.44
H      25.11       7.11      22.84
H      25.10       9.05      26.15
H      24.71      10.60      25.41
H      26.24       9.84      25.05
H      23.95       9.34      21.96
H      25.53       9.99      22.40
H      24.09      10.78      22.98
H      19.83       6.77      25.19
C       3.30      29.27       2.14
C       2.32      29.23       3.11
C       1.10      29.59       2.52
C       2.71      29.62       0.93
C       3.35      29.83      59.55
C       2.71      29.95      58.29
C       1.12       0.06      56.70
C       2.36       0.21      56.08
C       3.33       0.21      57.05
C      29.78      29.92      56.06
C      28.53      29.84      56.73
C      26.93      29.83      58.32
C      26.31      29.74      57.07
C      27.29      29.75      56.10
C      26.25      29.92      59.56
C      26.96      29.92       0.98
C      28.54      29.88       2.57
C      27.30       0.18       3.18
C      26.33       0.19       2.21
C      29.79      29.72       3.22
C      29.80      29.66       4.65
C       0.58       0.69       5.42
C       0.60       0.62       6.83
C      29.79      29.56       7.54
C      29.07      28.62       6.76
C      29.10      28.65       5.35
C      29.78      29.52       8.99
C      29.53      28.32       9.71
C      29.52      28.27      11.11
C      29.85      29.41      11.87
C       0.13       0.71      11.18
C       0.08       0.76       9.78
C      24.82      29.92      59.56
C      24.09       1.20      59.55
C      22.68       1.19      59.57
C      21.95      29.90      59.58
C      22.70      28.69      59.57
C      24.10      28.70      59.56
C      20.51      29.89      59.59
C      19.76       0.89      58.83
C      18.35       0.88      58.85
C      17.62      29.87      59.62
C      18.44      28.89       0.54
C      19.84      28.91       0.53
C      29.77      29.94      54.63
C      29.68      28.73      53.90
C      29.64      28.75      52.49
C      29.71      29.96      51.77
C      29.82       1.24      52.51
C      29.84       1.23      53.92
C      29.67       0.05      50.34
C       0.61       0.87      49.58
C       0.57       0.88      48.17
C      29.58       0.08      47.45
C      28.71      29.17      48.21
C      28.75      29.16      49.62
C       4.79      29.83      59.58
C       5.53      28.75      59.04
C       5.55       0.93       0.30
C       6.96       0.93       0.33
C       7.66      29.85      59.63
C       6.94      28.77      59.06
C       9.09      29.88      59.63
C       9.84      29.55      58.48
C      11.25      29.61      58.47
C      11.95       0.13      59.61
C      11.28       0.31       0.95
C       9.87       0.26       0.95
C      29.21      26.36      32.09
C      29.19      27.35      33.05
C      29.53      28.56      32.45
C      29.55      26.95      30.87
C      29.69      26.24      29.64
C      29.80      26.88      28.38
C      29.81      28.46      26.79
C       0.03      27.22      26.16
C       0.04      26.25      27.15
C      29.74      29.72      26.13
C      29.67       1.05      26.80
C      29.69       2.66      28.38
C      29.58       3.27      27.13
C      29.57       2.29      26.16
C      29.78       3.35      29.62
C      29.86       2.70      30.88
C      29.82       1.13      32.48
C       0.13       2.36      33.09
C       0.13       3.33      32.11
C      29.67      29.80      33.14
C      29.62      29.80      34.58
C       0.65      29.09      35.34
C       0.59      29.08      36.75
C      29.54      29.82      37.47
C      28.60       0.61      36.69
C      28.61       0.58      35.28
C      29.50      29.83      38.92
C      28.30       0.16      39.64
C      28.27       0.17      41.05
C      29.41      29.76      41.80
C       0.70      29.56      41.11
C       0.74      29.60      39.70
C      29.79       4.78      29.60
C       1.08       5.50      29.60
C       1.07       6.91      29.62
C      29.78       7.64      29.63
C      28.57       6.90      29.62
C      28.57       5.50      29.61
C      29.78       9.08      29.65
C       0.78       9.84      28.89
C       0.78      11.25      28.92
C      29.76      11.97      29.70
C      28.85      11.22      30.46
C      28.85       9.81      30.44
C      29.73      29.71      24.70
C      28.51      29.79      23.99
C      28.50      29.77      22.59
C      29.70      29.67      21.84
C       0.99      29.60      22.57
C       1.01      29.63      23.97
C      29.69      29.64      20.41
C       0.57      28.73      19.69
C       0.55      28.69      18.28
C      29.64      29.56      17.53
C      28.84       0.55      18.25
C      28.86       0.58      19.66
C      29.69      24.81      29.68
C      28.62      24.06      29.15
C       0.86      24.10      30.24
C       0.88      22.69      30.27
C      29.73      21.94      29.72
C      28.64      22.65      29.17
C      29.77      20.50      29.73
C      29.44      19.76      28.57
C      29.51      18.35      28.56
C       0.03      17.64      29.70
C       0.27      18.37      30.88
C       0.21      19.78      30.89
C       1.02      28.95      14.11
C      29.85      29.39      13.29
C      28.69      29.88      13.95
C      29.65      29.52      16.10
C       2.36      28.39      13.66
C       3.37      28.25      14.86
C       3.06      29.32      12.61
C       2.18      26.95      13.07
C      28.96      28.69      44.04
C      29.39      29.78      43.22
C      -0.04       1.01      43.87
C      29.54       0.06      46.02
C      28.39      27.34      43.60
C      28.25      26.34      44.81
C      29.31      26.63      42.56
C      26.95      27.52      43.02
C      14.18       1.29      59.31
C      13.38       0.15      59.62
C      14.10      28.81       0.07
C      16.19      29.87      59.64
C      13.71       2.70      58.96
C      14.91       3.66      58.62
C      13.01       3.29       0.31
C      12.79       2.69      57.69
C       1.19      15.42      29.39
C       0.05      16.22      29.70
C      28.76      15.55      30.00
C      29.77      13.41      29.72
C       2.60      15.89      29.03
C       3.56      14.69      28.69
C       3.25      16.65      30.24
C       2.59      16.81      27.77
C      25.18      22.32      56.99
C      24.19      22.29      57.96
C      22.98      22.64      57.37
C      24.58      22.67      55.78
C      25.28      22.82      54.55
C      24.64      22.95      53.29
C      23.05      22.98      51.70
C      24.29      23.13      51.08
C      25.26      23.13      52.05
C      21.79      22.92      51.06
C      20.54      22.83      51.73
C      18.93      22.83      53.32
C      18.31      22.74      52.07
C      19.29      22.74      51.10
C      18.25      22.91      54.56
C      18.90      22.97      55.83
C      20.49      22.93      57.42
C      19.25      23.16      58.03
C      18.28      23.16      57.06
C      21.74      22.77      58.07
C      21.75      22.71      59.50
C      22.51      23.61       0.42
C      22.53      23.54       1.83
C      21.79      22.56       2.54
C      21.07      21.62       1.76
C      21.10      21.64       0.35
C      21.78      22.52       3.99
C      21.53      21.31       4.71
C      21.52      21.27       6.11
C      21.86      22.41       6.87
C      22.06      23.63       6.18
C      22.01      23.68       4.78
C      16.82      22.91      54.56
C      16.10      24.12      54.55
C      14.69      24.11      54.57
C      13.96      22.90      54.58
C      14.70      21.69      54.57
C      16.11      21.69      54.56
C      12.52      22.89      54.59
C      11.76      23.81      53.83
C      10.35      23.80      53.85
C       9.63      22.86      54.62
C      10.38      21.94      55.40
C      11.79      21.96      55.38
C      21.78      22.93      49.63
C      21.68      21.73      48.90
C      21.65      21.74      47.49
C      21.72      22.96      46.77
C      21.82      24.16      47.51
C      21.85      24.15      48.92
C      21.67      22.97      45.34
C      22.54      23.79      44.58
C      22.50      23.80      43.17
C      21.58      23.00      42.45
C      20.72      22.17      43.21
C      20.76      22.16      44.62
C      26.72      22.82      54.58
C      27.46      21.74      54.04
C      27.43      23.90      55.15
C      28.83      23.91      55.18
C      29.59      22.84      54.63
C      28.87      21.76      54.06
C       1.09      22.87      54.63
C       1.84      22.54      53.48
C       3.25      22.61      53.47
C       3.96      23.05      54.61
C       3.22      23.29      55.80
C       1.82      23.23      55.80
C      21.22      19.36      27.09
C      21.19      20.34      28.05
C      21.54      21.56      27.45
C      21.56      19.94      25.87
C      21.70      19.24      24.64
C      21.81      19.88      23.38
C      21.81      21.45      21.79
C      21.96      20.21      21.16
C      21.97      19.24      22.15
C      21.74      22.71      21.13
C      21.67      23.97      21.80
C      21.69      25.58      23.38
C      21.59      26.20      22.13
C      21.57      25.21      21.16
C      21.79      26.27      24.62
C      21.86      25.62      25.88
C      21.83      24.05      27.48
C      22.06      25.28      28.09
C      22.06      26.25      27.11
C      21.67      22.80      28.14
C      21.62      22.79      29.58
C      22.58      22.09      30.34
C      22.52      22.08      31.75
C      21.55      22.82      32.47
C      20.60      23.53      31.69
C      20.62      23.50      30.28
C      21.51      22.82      33.92
C      20.31      23.08      34.64
C      20.27      23.09      36.05
C      21.42      22.76      36.80
C      22.63      22.55      36.11
C      22.67      22.59      34.70
C      21.79      27.70      24.60
C      23.01      28.42      24.60
C      23.00      29.83      24.62
C      21.79       0.64      24.63
C      20.58      29.82      24.62
C      20.58      28.42      24.61
C      21.79       2.08      24.65
C      22.71       2.83      23.89
C      22.71       4.24      23.92
C      21.77       4.97      24.70
C      20.85       4.21      25.46
C      20.86       2.80      25.44
C      21.73      22.71      19.70
C      20.51      22.78      18.99
C      20.50      22.77      17.59
C      21.71      22.67      16.84
C      22.92      22.60      17.57
C      22.94      22.62      18.97
C      21.69      22.63      15.41
C      22.50      21.73      14.69
C      22.48      21.69      13.28
C      21.65      22.55      12.53
C      20.84      23.47      13.25
C      20.86      23.51      14.66
C      21.70      17.80      24.68
C      20.62      17.05      24.15
C      22.79      17.10      25.24
C      22.81      15.69      25.27
C      21.74      14.93      24.72
C      20.65      15.64      24.17
C      21.77      13.50      24.73
C      21.44      12.75      23.57
C      21.52      11.35      23.56
C      21.96      10.64      24.70
C      22.20      11.37      25.88
C      22.14      12.78      25.89
C      22.95      21.95       9.11
C      21.85      22.38       8.29
C      20.69      22.87       8.95
C      21.65      22.52      11.10
C      24.29      21.39       8.66
C      25.30      21.25       9.86
C      24.99      22.31       7.61
C      24.11      19.95       8.07
C      20.96      21.68      39.04
C      21.39      22.77      38.22
C      21.89      23.93      38.87
C      21.54      22.98      41.02
C      20.39      20.34      38.60
C      20.25      19.33      39.81
C      21.31      19.62      37.56
C      18.95      20.52      38.02
C       6.18      24.21      54.31
C       5.38      23.07      54.62
C       6.05      21.86      54.92
C       8.19      22.87      54.64
C       5.71      25.62      53.96
C       6.92      26.58      53.62
C       4.96      26.27      55.16
C       4.79      25.61      52.69
C      23.12       8.41      24.39
C      21.98       9.22      24.70
C      20.77       8.54      25.00
C      21.78       6.40      24.72
C      24.53       8.88      24.03
C      25.49       7.68      23.69
C      25.18       9.64      25.24
C      24.52       9.80      22.77
N       1.39      29.78       1.21
N       1.38      29.87      58.03
N      28.26      29.88      58.06
N      28.28      29.78       1.24
N      29.72      28.27      31.14
N      29.71      28.20      28.11
N      29.73       1.33      28.12
N      29.72       1.38      31.16
N      28.62      29.93      15.30
N       0.82      29.06      15.45
N       0.02       1.09      45.22
N      29.06      28.89      45.39
N      15.46      28.74       0.08
N      15.53       1.10      59.35
N      28.69      14.19      30.01
N       1.00      14.07      29.42
N      23.26      22.83      56.06
N      23.31      22.86      53.03
N      20.27      22.87      53.06
N      20.22      22.83      56.09
N      21.72      21.27      26.14
N      21.72      21.20      23.11
N      21.73      24.25      23.12
N      21.72      24.30      26.16
N      20.62      22.93      10.30
N      22.75      22.05      10.45
N      21.95      24.01      40.22
N      21.07      21.88      40.39
N       7.41      21.79      54.93
N       7.53      24.02      54.35
N      20.70       7.18      25.01
N      22.93       7.06      24.42
O      27.61       0.38      13.24
O       0.39       2.08      43.15
O      13.41      27.68       0.36
O      27.63      16.24      30.29
O      19.61      23.30       8.24
O      22.32      25.00      38.15
O       5.36      20.73      55.21
O      19.64       9.24      25.29
