13

Nd       5.55      -2.06       7.20
O       7.51      -3.30       6.49
O       3.59      -0.82       6.49
C       8.10      -4.34       6.13
O       6.74      -2.68       9.30
O       6.33       0.23       8.00
C       3.00       0.22       6.13
O       4.36      -1.43       9.30
O       4.77      -4.35       8.00
C       7.56       0.22       7.75
C       3.53      -4.34       7.75
C       6.21      -2.47      10.41
C       4.89      -1.65      10.41
