13

Nd       5.55      -2.06      13.62
O       7.51      -3.29      14.33
O       3.59      -0.83      14.33
O       6.63      -2.86      11.52
O       3.82      -3.75      12.83
C       8.71      -3.38      14.69
O       4.47      -1.26      11.52
O       7.27      -0.37      12.83
C       2.39      -0.74      14.69
C       4.36      -4.86      13.07
C       6.74       0.74      13.07
C       6.21      -2.47      10.41
C       4.89      -1.65      10.41
