13

Nd      -2.95       6.18       6.68
O      -4.14       6.80       4.58
O      -3.74       3.89       5.89
O      -1.76       5.55       4.58
O      -2.17       8.46       5.89
C      -4.97       3.90       6.13
C      -0.94       8.46       6.13
O      -4.91       7.42       7.39
O      -1.00       4.94       7.39
C      -5.50       8.46       7.75
C      -0.40       3.90       7.75
C      -3.61       6.59       3.47
C      -2.29       5.76       3.47
