297

C       8.11      12.57       0.99
C       6.93      13.35       0.99
C       7.87      14.86      40.27
C       9.07      14.11      40.23
C      10.13      14.56      39.40
C      10.03      15.75      38.63
C       8.81      16.45      38.65
C       7.74      16.01      39.45
C       5.85      12.97       1.82
C       5.89      11.79       2.57
C       7.03      10.96       2.53
C       8.15      11.39       1.78
C       9.47      11.72      40.23
C      10.67      10.97      40.27
C      11.62      12.48       0.99
C      10.43      13.26       0.99
C      12.70      12.86       1.82
C      12.65      14.05       2.57
C      11.51      14.88       2.53
C      10.40      14.44       1.78
C       8.41      11.27      39.40
C       8.51      10.09      38.63
C       9.74       9.39      38.65
C      10.80       9.83      39.45
C       9.27      12.92       0.08
C      11.79      11.30       0.12
C       6.75      14.53       0.12
C      -3.56      14.09      14.68
C      -2.29      14.73      14.68
C      -1.45      13.16      12.89
C      -2.71      12.49      12.86
C      -2.84      11.35      12.02
C      -1.77      10.84      11.26
C      -0.55      11.55      11.28
C      -0.40      12.70      12.07
C      -2.08      15.85      15.51
C      -3.13      16.41      16.25
C      -4.42      15.83      16.22
C      -4.60      14.65      15.47
C      -4.97      13.34      12.86
C      -6.23      12.68      12.89
C      -5.39      11.10      14.68
C      -4.12      11.74      14.68
C      -5.60       9.98      15.51
C      -4.55       9.42      16.25
C      -3.26      10.00      16.22
C      -3.08      11.18      15.47
C      -4.84      14.48      12.02
C      -5.91      14.99      11.26
C      -7.13      14.28      11.28
C      -7.28      13.13      12.07
C      -3.84      12.92      13.77
C      -6.50      11.54      13.80
C      -1.18      14.29      13.80
C      16.70       0.73      28.36
C       3.51      22.02      28.37
C       1.73      22.08      26.58
C      14.90       0.79      26.54
C      13.97       1.48      25.71
C      13.00       0.80      24.94
C      -0.11      22.10      24.96
C       0.81      21.40      25.76
C       4.38      21.28      29.20
C       5.38      21.91      29.94
C      18.64       0.60      29.91
C      17.71       1.35      29.16
C      16.76       2.33      26.54
C      16.81       3.75      26.58
C      15.03       3.81      28.37
C      14.95       2.39      28.36
C      14.17       4.56      29.20
C      13.16       3.92      29.94
C      13.01       2.52      29.91
C      13.95       1.77      29.16
C      17.68       1.64      25.71
C      18.66       2.32      24.95
C      18.65       3.73      24.97
C      17.74       4.43      25.76
C      15.83       1.56      27.45
C      15.97       4.55      27.49
C       2.58      21.28      27.49
C       7.78       8.28      35.84
C       8.15       7.11      36.55
C       8.84       6.01      34.55
C       8.38       7.10      33.77
C       7.87       8.24      34.43
C       9.47       4.93      33.90
C      10.87       2.89      32.56
C      10.20       3.89      31.82
C       9.54       4.95      32.48
C      10.73       2.91      33.97
C      11.71       1.82      31.93
C       7.32       9.53      36.51
C      -7.11      16.52       8.46
C      -8.31      16.79       9.17
C      -9.60      16.74       7.17
C      -8.43      16.59       6.40
C      -7.19      16.47       7.05
C      15.37      16.74       6.52
C      12.90      16.55       5.18
C      14.11      16.63       4.45
C      15.35      16.66       5.11
C      12.99      16.66       6.59
C      11.56      16.35       4.56
C      -5.80      16.30       9.13
C      20.59       2.59      22.15
C      21.42       3.49      22.86
C      22.02       4.64      20.86
C      21.30       3.70      20.09
C      20.58       2.68      20.74
C      22.65       5.72      20.21
C      -2.51       7.96      18.87
C      -3.05       6.87      18.13
C      22.59       5.78      18.80
C      -2.46       7.82      20.28
C      -2.01       9.21      18.24
C      19.74       1.56      22.82
C      10.76      17.55      35.84
C      10.40      18.73      36.54
C       9.70      19.82      34.55
C      10.16      18.73      33.77
C      10.68      17.59      34.43
C       9.08      20.90      33.90
C      20.79       0.24      32.56
C       8.35      21.94      31.82
C       9.00      20.88      32.48
C      20.93       0.21      33.96
C      19.95       1.30      31.93
C      11.23      16.30      36.51
C      -0.57       9.31       8.46
C       0.63       9.04       9.17
C       1.92       9.09       7.17
C       0.75       9.24       6.40
C      -0.49       9.36       7.05
C       3.17       9.09       6.52
C       5.64       9.28       5.18
C       4.43       9.21       4.44
C       3.19       9.17       5.11
C       5.55       9.18       6.59
C       6.98       9.48       4.56
C      -1.88       9.53       9.13
C      11.07       0.53      22.15
C      -2.88      22.34      22.86
C      -3.48      21.19      20.86
C      -2.76      22.13      20.08
C      11.08       0.44      20.74
C      -4.10      20.11      20.21
C      -5.17      17.88      18.87
C      -4.63      18.96      18.13
C      -4.05      20.05      18.79
C      -5.22      18.01      20.28
C      -5.67      16.62      18.24
C      11.92       1.56      22.82
H       9.85       8.52      38.13
H      11.66       9.27      39.47
H      13.56      12.31       1.83
H      13.48      14.32       3.09
H       9.57      15.04       1.74
H       7.52      11.77      39.41
H      11.02      14.06      39.40
H       8.69      17.31      38.13
H       6.88      16.57      39.47
H       8.97      10.79       1.74
H       4.98      13.52       1.83
H       5.06      11.51       3.09
H      11.98      10.43       0.76
H      12.68      11.47      40.56
H       6.57      15.40       0.76
H       5.86      14.37      40.56
H      10.86      16.80       2.66
H       6.50       9.90      38.38
H      12.04      15.93      38.38
H       7.69       9.03       2.65
H      -7.93      14.61      10.75
H      18.03      12.67      12.09
H      19.71       9.50      15.52
H      -4.73       8.57      16.78
H      -2.15      11.59      15.43
H      -3.96      15.00      12.03
H      -3.72      10.83      12.03
H       0.26      11.22      10.75
H       0.52      13.16      12.09
H      -5.53      14.24      15.43
H      -1.17      16.33      15.52
H      -2.95      17.26      16.78
H      18.88      11.81      14.44
H      19.42      10.69      13.19
H      -0.34      14.02      14.45
H      -0.88      15.14      13.19
H      -1.27       9.60      16.34
H      -5.06      16.82      11.00
H      -2.62       9.01      11.00
H      -6.41      16.23      16.34
H      19.35       4.26      24.44
H      17.79       5.46      25.78
H      14.21       5.58      29.21
H      12.51       4.50      30.47
H      13.84       0.76      29.12
H      17.69       0.62      25.72
H      13.96       2.50      25.72
H      -0.80      21.57      24.44
H       0.75      20.38      25.78
H      17.82       2.36      29.12
H       4.33      20.25      29.20
H       6.04      21.33      30.46
H      16.62       5.14      28.13
H      15.38       5.24      26.88
H       1.92      20.69      28.13
H       3.17      20.59      26.88
H      11.67       0.99      30.03
H      19.82       0.67      24.69
H      11.83       2.46      24.69
H      19.99       2.13      30.03
H       7.59       9.05      33.87
H       8.05       7.04      37.56
H      10.23       3.91      30.80
H      11.17       2.20      34.55
H      11.24       0.87      32.19
H      12.70       1.84      32.40
H       6.28       9.68      36.19
H       7.89      10.38      36.13
H      -6.34      16.30       6.50
H      -8.31      16.91      10.18
H      14.10      16.59       3.42
H      12.15      16.63       7.17
H      10.96      17.23       4.82
H      11.07      15.49       5.02
H      -5.14      17.12       8.81
H      -5.35      15.37       8.75
H      20.02       2.03      20.19
H      21.52       3.44      23.87
H      -3.08       6.90      17.11
H      -2.06       8.56      20.86
H      -0.95       9.29      18.50
H      -2.51      10.07      18.71
H      20.12       0.59      22.50
H      18.72       1.64      22.44
H      10.96      16.78      33.87
H      10.49      18.79      37.56
H       8.31      21.92      30.80
H      20.48       0.93      34.55
H      20.41       2.26      32.19
H      18.96       1.29      32.39
H      12.26      16.15      36.19
H      10.65      15.46      36.13
H      -1.34       9.53       6.50
H       0.64       8.93      10.18
H       4.44       9.25       3.42
H       6.39       9.20       7.17
H       7.58       8.60       4.81
H       7.47      10.34       5.02
H      -2.54       8.71       8.81
H      -2.33      10.46       8.75
H      11.64       1.09      20.18
H      -2.98      22.39      23.87
H      -4.60      18.94      17.11
H      -5.62      17.27      20.86
H      -6.74      16.54      18.50
H      -5.17      15.76      18.71
H      11.53       2.53      22.50
H      12.94       1.48      22.44
N      11.57      16.19       3.08
N       7.37       9.51      38.00
N      11.17      16.32      38.00
N       6.97       9.64       3.07
N      -2.15       9.28      16.76
N      -5.84      16.26      10.62
N      -1.84       9.57      10.62
N      -5.53      16.55      16.76
N      11.84       1.91      30.45
N      19.73       1.62      24.31
N      11.93       1.51      24.31
N      19.82       1.21      30.45
N       8.69       6.05      35.90
N      10.05       3.91      34.58
N       9.04       6.02      31.81
N       8.50       7.04      32.42
N      -9.50      16.86       8.52
N      14.20      16.75       7.20
N      16.52      16.57       4.43
N      -8.54      16.52       5.04
N      22.07       4.49      22.21
N      -2.99       6.73      20.89
N      21.92       4.81      18.12
N      21.30       3.83      18.73
N       9.86      19.79      35.90
N       8.50      21.92      34.58
N       9.50      19.81      31.81
N      10.04      18.79      32.42
N       1.82       8.98       8.52
N       4.35       9.09       7.20
N       2.02       9.26       4.43
N       0.86       9.31       5.04
N      -3.53      21.34      22.21
N      -4.69      19.10      20.89
N      -3.38      21.02      18.12
N      -2.76      22.00      18.73
