16

C       4.42       7.15       0.18
C       7.09       7.83      -0.15
O       7.15       7.54       3.47
O       4.38       7.45      -3.44
H       3.38       6.89       0.31
H       8.14       8.09      -0.28
O       8.74       8.19       2.04
O       2.77       6.80      -2.03
C       7.56       7.79       2.27
C       3.96       7.20      -2.24
O       4.66       7.02       2.54
O       6.86       7.97      -2.51
C       6.60       7.60       1.14
C       4.91       7.38      -1.11
C       5.22       7.25       1.33
C       6.29       7.73      -1.30
