38

C      12.73       2.11       5.73
C      15.98      -1.63       6.08
C      16.89      -0.78       6.78
C      16.43       0.45       7.26
C      15.13       0.86       7.00
C      16.38      -2.94       5.80
C      18.56      -2.54       6.76
C      13.04       0.67       5.66
C      17.96      -4.82       6.01
C      18.20      -1.24       7.07
C      17.64      -3.41       6.17
C      12.15      -0.16       4.97
C      12.50      -1.46       4.64
C      13.75      -1.94       4.98
C      14.68      -1.16       5.73
C      14.28       0.14       6.13
C      19.26      -0.39       7.67
C      19.83       0.64       6.91
C      21.05       1.20       7.31
C      21.70       0.74       8.46
C      21.10      -0.24       9.26
C      19.88      -0.81       8.86
H      19.55      -2.90       7.01
H      17.06       1.07       7.88
H      15.71      -3.66       5.38
H      11.19       0.21       4.62
H      13.96      -2.94       4.63
H      11.81      -2.08       4.08
H      14.81       1.75       7.52
H      19.38       0.94       5.98
H      21.52       1.96       6.70
H      22.66       1.15       8.74
H      21.59      -0.58      10.16
H      19.46      -1.62       9.45
O      11.52       2.52       5.45
O      13.70       2.93       5.97
O      16.99      -5.64       5.71
O      19.17      -5.22       6.23
