104

Cu       9.66       9.98       0.15
Cu       3.28       4.54       6.87
Cu       5.64       0.94      13.89
Cu      12.01       6.38       7.16
H      13.83       3.02      10.82
H       8.99       5.88      13.09
H      10.00       4.97      10.82
H      10.96       2.06      13.88
H       0.76       3.88       0.56
H       8.55       1.59      13.12
H       2.03       6.02       0.12
H       3.82       8.47      10.23
H       8.64       0.42       7.96
H       7.64      10.42      10.23
H       6.69       7.50       7.18
H      12.19       9.34       6.46
H       9.10       7.03       7.93
H      10.91       0.58       6.90
H       1.47       7.91       3.21
H       6.30       5.04       0.95
H       5.29       5.95       3.21
H       4.34       8.86       0.16
H      14.53       7.04      13.48
H       6.75       9.33       0.91
H      13.27       4.91      13.92
H      11.47       2.45       3.81
H       6.65      10.50       6.07
H       7.65       0.50       3.81
H       8.61       3.42       6.86
H       3.11       1.58       7.58
H       6.20       3.89       6.10
H       4.38      10.35       7.14
C      13.48       1.53      13.05
C       8.97       3.72      13.04
C      12.29       4.68       9.38
C      10.31       3.55      12.44
C      12.85       3.17      11.28
C      12.49       2.47      12.43
C       8.42       4.98      13.31
C      10.69       4.27      11.29
C      11.22       2.63      12.99
C      11.94       4.05      10.69
C       1.75       3.87       0.11
C       8.19       2.59      13.33
C       7.16       5.07      13.89
C       4.15       6.99       8.00
C       8.67       9.16       8.02
C       5.37      10.13      11.67
C       7.33       8.99       8.62
C       4.79       8.62       9.77
C       5.15       7.92       8.62
C       9.22      10.43       7.74
C       6.95       9.72       9.76
C       6.42       8.08       8.06
C       5.71       9.50      10.36
C      11.19       9.34       6.90
C       9.46       8.04       7.72
C      10.49      10.51       7.16
C       1.81       9.39       0.99
C       6.32       7.20       1.00
C       3.00       6.24       4.66
C       4.98       7.37       1.60
C       2.44       7.75       2.75
C       2.80       8.46       1.60
C       6.87       5.94       0.73
C       4.60       6.65       2.74
C       4.07       8.29       1.05
C       3.35       6.87       3.34
C      13.54       7.05      13.92
C       7.11       8.33       0.70
C       8.14       5.85       0.14
C      11.14       3.93       6.04
C       6.62       1.76       6.02
C       9.92       0.79       2.36
C       7.96       1.93       5.42
C      10.50       2.30       4.26
C      10.15       3.00       5.42
C       6.07       0.49       6.29
C       8.34       1.20       4.28
C       8.87       2.85       5.97
C       9.59       1.42       3.68
C       4.10       1.59       7.13
C       5.84       2.88       6.32
C       4.80       0.41       6.87
N       6.95       2.68      13.86
N      10.69       8.12       7.19
N       8.34       8.25       0.18
N       4.60       2.80       6.84
O      13.03       0.41      13.46
O      14.69       1.94      13.08
O      11.61       5.68       9.00
O      13.24       4.11       8.74
O       4.59       5.88       7.58
O       2.95       7.42       7.97
O       6.08       0.21      12.06
O       4.40       9.60      12.31
O       2.26      10.51       0.57
O       0.60       8.98       0.95
O       3.68       5.24       5.04
O       2.05       6.81       5.29
O      10.70       5.04       6.46
O      12.34       3.51       6.07
O       9.21      10.71       1.97
O      10.89       1.32       1.73
