204

V       0.77       9.70      27.36
V       6.29      13.01       0.12
V       4.48       4.41       0.12
V       2.59      18.30      27.36
H       5.67       8.83       0.12
H       1.39      13.88      27.36
H       1.93      22.47      27.36
H       5.13       0.24       0.12
H       2.43      19.66      23.33
H       4.63       3.04       4.15
H       2.44      11.27       3.89
H       4.62      11.44      23.59
H       2.29      19.89      20.90
H       4.77       2.82       6.58
H       2.34      10.98       6.32
H       4.72      11.73      21.16
H       6.59       5.50      17.61
H       0.47      17.21       9.87
H       3.99       8.44       9.98
H       3.08      14.26      17.50
H       1.28       4.90       4.07
H       5.79      17.80      23.41
H       1.13       8.97      23.16
H       5.94      13.74       4.32
H       5.47       6.20      10.94
H       1.60      16.51      16.54
H       4.30       7.73      16.73
H       2.76      14.98      10.75
H       5.55       5.84      13.31
H       1.51      16.87      14.17
H       4.46       8.03      14.35
H       2.60      14.68      13.13
H       3.25       5.03       5.24
H       2.31       6.54       5.59
H       3.60       5.99       6.72
H       1.42       5.48       7.66
H       2.29       3.96       7.28
H       4.75      16.17      21.89
H       3.81      17.68      22.24
H       3.46      16.72      20.76
H       4.78      18.75      20.20
H       5.64      17.23      19.82
H       6.45       9.65      21.72
H       6.87      10.80      20.38
H       6.04       9.24      20.02
H       1.14       9.06      19.40
H       0.82       7.97      20.77
H       0.19      11.91       7.10
H       0.61      13.06       5.76
H       1.03      13.47       7.46
H       6.24      14.74       6.71
H       5.92      13.64       8.08
H       0.85       7.13      17.05
H       2.04       6.41      15.88
H       1.32       8.04      15.59
H       0.30       6.49      14.11
H       6.29       7.01      15.32
H       5.03      16.30      11.60
H       6.21      15.58      10.43
H       5.74      14.67      11.89
H       0.78      15.70      12.16
H       6.77      16.22      13.37
H       1.00       8.17      11.37
H       2.14       7.16      10.38
H       1.29       6.44      11.78
H       3.68       6.96      12.33
H       2.45       7.79      13.35
H       4.93      15.55      17.10
H       6.06      14.54      16.11
H       5.77      16.27      15.70
H       4.61      14.92      14.13
H       3.38      15.75      15.15
C       2.80      10.02      25.03
C       4.27      12.69       2.45
C       6.50       4.10       2.46
C       0.57      18.61      25.02
C       2.81       7.32      27.44
C       4.25      15.39       0.04
C       6.50       6.79       0.04
C       0.56      15.92      27.44
C       6.60       8.27       0.05
C       0.47      14.44      27.43
C       2.92       5.83      27.43
C       4.14      16.87       0.05
C       7.06      20.38      18.82
C       0.00       2.33       8.66
C       4.09      10.80       8.71
C       2.97      11.91      18.77
C       0.71      18.19      18.46
C       6.35       4.51       9.02
C       3.55      13.11       8.96
C       3.52       9.60      18.52
C       6.50      18.37      21.43
C       0.56       4.34       6.05
C       5.09      13.00       6.16
C       1.98       9.71      21.32
C       6.59      18.26      22.84
C       0.47       4.45       4.64
C       5.15      13.14       4.76
C       1.92       9.57      22.72
C       1.55      19.29      22.82
C       5.51       3.41       4.66
C       3.18      11.76       4.51
C       3.88      10.95      22.97
C       1.47      19.43      21.43
C       5.59       3.28       6.05
C       3.12      11.60       5.89
C       3.94      11.11      21.59
C       0.35      18.98      20.73
C       6.72       3.73       6.75
C       4.05      12.23       6.74
C       3.02      10.48      20.74
C       0.16      19.59      16.54
C       6.90       3.11      10.94
C       3.63      11.68      10.93
C       3.44      11.02      16.55
C       7.02      20.62      17.43
C       0.05       2.09      10.05
C       3.91      10.59      10.09
C       3.16      12.12      17.39
C       6.79       4.68      16.92
C       0.28      18.02      10.56
C       3.89       9.30      10.63
C       3.18      13.41      16.85
C       0.66      18.38      17.06
C       6.41       4.33      10.42
C       3.41      12.95      10.35
C       3.65       9.76      17.13
C       0.50      18.72      23.54
C       6.57       3.99       3.94
C       4.20      12.53       3.93
C       2.87      10.18      23.55
C       6.70       3.99      13.23
C       0.36      18.72      14.25
C       3.70      10.07      14.31
C       3.36      12.64      13.17
C       0.10      18.85      12.85
C       6.96       3.86      14.63
C       3.44      12.51      14.59
C       3.62      10.20      12.89
C       7.02       2.92      12.34
C       0.05      19.79      15.14
C       3.51      11.20      15.14
C       3.55      11.51      12.34
C       6.03       5.10      12.68
C       1.04      17.60      14.80
C       4.09       8.86      14.92
C       2.97      13.85      12.56
C       5.93       5.29      11.31
C       1.14      17.41      16.18
C       4.04       8.70      16.31
C       3.02      14.01      11.17
C       6.91       4.96      15.55
C       0.15      17.75      11.93
C       3.55       9.10      11.98
C       3.51      13.61      15.50
C       1.77       4.83       6.83
C       2.79       5.65       6.04
C       5.29      17.88      20.65
C       4.27      17.06      21.44
C       0.91       9.04      20.48
C       6.79       9.73      20.66
C       6.15      13.67       7.00
C       0.27      12.98       6.82
C      -0.03       6.40      15.17
C       1.12       7.02      15.97
C       7.09      16.30      12.31
C       5.95      15.68      11.51
C       2.91       7.76      12.35
C       1.77       7.37      11.41
C       4.15      14.95      15.13
C       5.29      15.34      16.07
N       0.28      19.18      19.31
N       6.78       3.53       8.17
N       3.92      12.05       8.17
N       3.14      10.66      19.31
O       4.06       2.45       0.02
O       3.00      20.26      27.46
O       0.34      11.66      27.46
O       6.72      11.05       0.02
O       1.58       9.91      25.56
O       5.48      12.80       1.92
O       5.28       4.20       1.92
O       1.78      18.51      25.56
O       1.59       7.86      27.38
O       5.48      14.85       0.10
O       5.28       6.25       0.10
O       1.79      16.46      27.38
O       0.44       4.09       1.81
O       6.63      18.62      25.67
O       3.96      10.02      25.67
O       3.10      12.69       1.81
O       2.85       4.87       0.63
O       4.22      17.84      26.85
O       6.37       9.24      26.85
O       0.69      13.47       0.63
O       6.74       4.15      19.68
O       0.32      18.56       7.80
O       4.42       9.76       7.92
O       2.64      12.95      19.56
O       5.87       5.67       8.52
O       1.19      17.04      18.96
O       3.74       8.39      19.08
O       3.32      14.32       8.40
