40

H      -2.35       4.37      15.85
H      -6.59       4.15      16.50
O      -1.37       3.50      13.65
O      -1.76       1.30      13.97
O      -3.21       5.57      17.98
O      -5.40       6.01      17.80
H      -6.77       2.49      14.67
H      -5.89      -0.00      14.22
H      -3.72       2.75      11.71
H      -6.12      -1.54      12.30
H      -5.08      -0.99      10.11
H      -5.32       1.30       8.26
H      -4.04       1.96       6.22
H      -0.40       1.92       8.47
O      -2.05       2.58       4.90
O      -0.10       2.50       6.02
O      -0.55       1.94      11.27
O      -1.55      -0.04      11.34
C      -2.11       2.52      14.03
C      -3.41       2.95      14.64
C      -3.32       3.94      15.63
C      -4.46       4.37      16.32
C      -5.70       3.82      15.97
C      -5.79       2.87      14.95
C      -4.66       2.42      14.26
C      -4.35       5.37      17.43
C      -4.79       1.49      13.11
C      -5.48       0.27      13.25
C      -5.59      -0.60      12.17
C      -5.02      -0.29      10.94
C      -4.31       0.91      10.78
C      -4.22       1.80      11.86
C      -3.58       1.23       9.53
C      -4.24       1.42       8.30
C      -3.53       1.79       7.16
C      -2.14       1.99       7.21
C      -1.48       1.79       8.42
C      -2.18       1.42       9.57
C      -1.39       2.37       5.98
C      -1.41       1.09      10.80
