40

C       2.16       9.71       1.76
C       3.44      10.14       1.14
C       3.35      11.12       0.14
C       4.49      11.54      -0.56
C       5.73      10.99      -0.22
C       5.83      10.04       0.80
C       4.69       9.61       1.52
C       4.37      12.54      -1.67
C       4.82       8.67       2.66
C       5.51       7.45       2.52
C       5.63       6.58       3.60
C       5.06       6.90       4.83
C       4.36       8.10       4.99
C       4.26       8.99       3.90
C       3.64       8.43       6.24
C       4.29       8.63       7.47
C       3.58       9.01       8.61
C       2.19       9.20       8.55
C       1.53       9.01       7.34
C       2.24       8.63       6.20
H       2.38      11.55      -0.10
H       6.62      11.31      -0.75
H       6.80       9.66       1.09
H       5.92       7.18       1.55
H       6.16       5.64       3.47
H       5.12       6.20       5.66
O       1.41      10.66       2.16
O       1.83       8.48       1.79
O       3.23      12.76      -2.20
O       5.43      13.17      -2.03
H       3.76       9.94       4.05
H       5.37       8.51       7.51
C       1.46       8.28       4.99
O       0.61       9.14       4.51
O       1.60       7.14       4.46
H       4.09       9.18       9.55
O       2.07       9.80      10.87
O       0.15       9.75       9.73
H       0.45       9.14       7.29
C       1.43       9.60       9.78
