26

H       4.67       4.96      12.25
H       2.79       1.39      18.63
H       1.71       4.85      15.75
H       4.02       4.85      14.47
H       1.06       4.96      17.97
H       2.93       1.39      11.58
C       4.32       3.22      10.28
C       3.16       2.09      12.18
C       2.57       2.09      18.04
C       2.97       2.03      16.72
C       1.84       3.18      18.51
C       2.75       2.03      13.50
C       3.07       3.06      14.40
C       1.54       4.20      17.65
C       4.19       4.20      12.56
C       1.94       4.14      16.33
C       3.79       4.14      13.89
C       1.41       3.22      19.93
C       3.89       3.18      11.71
C       2.66       3.06      15.81
O       2.02       0.95      13.95
O       3.70       0.95      16.27
O       0.79       4.24      20.33
O       1.68       2.22      20.67
O       4.05       2.22       9.54
O       4.93       4.24       9.89
