26

H       1.15      -6.23      12.08
H      -0.07      -8.10       6.99
H       0.07      -2.00      10.51
H      -1.80      -9.32      10.42
H       1.80      -4.37      13.28
H      -1.15      -7.34      11.44
C      -0.21      -6.50       9.85
C       0.21      -5.28      10.56
C       0.29      -2.87      10.83
C       1.32      -4.26      12.47
C      -0.93      -7.48      10.53
C       1.46      -1.79      12.76
C       0.93      -5.37      11.74
C      -1.32      -8.67       9.92
C      -0.11      -3.98      10.11
C      -0.29      -7.94       7.90
C      -1.46     -10.15       7.93
C       0.11      -6.77       8.51
C       1.03      -3.01      12.01
C      -1.03      -8.89       8.61
O      -1.18     -10.29       6.69
O      -0.84      -3.83       8.95
O       0.84      -5.84       7.80
O      -2.07     -11.00       8.61
O       2.07      -1.96      13.83
O       1.18      -0.65      12.26
