13

C       0.86       3.59       3.86
O       3.47       3.03      -1.63
O       0.28       4.71       3.98
C       1.76       3.39       2.70
C       2.59       2.31       2.43
C       3.36       4.01      -0.82
O       0.67       2.60       4.66
H       2.67       1.46       3.11
C       2.89       3.62       0.53
S       1.77       4.57       1.43
H       3.91       1.71       0.75
C       3.24       2.44       1.20
O       3.58       5.23      -1.09
