13

O       1.56       9.07       4.59
C       3.72       9.08       0.34
C       2.17       9.90       3.83
O       4.58       8.30      -1.72
O       2.38      11.13       4.12
H       1.75       7.40       2.49
C       2.37       8.13       1.98
S       3.68      10.33       1.53
C       4.51       9.28      -0.89
C       2.98       7.96       0.72
C       2.66       9.38       2.54
O       5.11      10.39      -1.06
H       2.92       7.07       0.11
