12

Cu       0.45       3.27      13.67
H      -2.02       2.44      12.78
N      -2.34       3.76      14.19
N      -1.55       3.06      13.44
O       0.48       5.24      13.72
C       1.57       3.26      16.37
O       0.82       1.35      13.66
O       0.51       3.18      15.62
C       1.98       3.57      11.26
O       0.79       3.41      11.76
C       1.54       5.96      13.89
C       2.01       0.87      13.74
