23

H       4.68      12.20       3.74
H       5.14      15.06       6.93
H       6.44      16.54       5.40
H       6.86      15.82       3.05
H       3.59       9.36       7.21
H       4.99      10.77       5.70
H       2.94      14.22       7.31
H       1.66      12.68       8.76
C       6.01      13.56       1.82
C       5.80      13.97       3.26
C       5.08      13.13       4.13
C       4.84      13.52       5.46
C       5.32      14.76       5.90
C       6.05      15.58       5.05
C       6.29      15.19       3.73
C       3.49      10.44       7.21
C       4.25      11.23       6.35
C       4.08      12.63       6.36
C       3.15      13.15       7.27
C       2.42      12.29       8.08
N       2.57      10.95       8.06
O       6.54      14.42       1.04
O       5.62      12.40       1.48
