23

H       4.79       3.53       4.00
H       5.64       6.14       7.32
H       6.98       7.60       5.81
H       7.15       7.05       3.37
H       3.42       0.63       7.29
H       4.87       1.97       5.76
H       3.46       5.50       7.81
H       2.04       4.03       9.21
C       6.09       4.91       2.08
C       5.98       5.25       3.54
C       5.25       4.42       4.41
C       5.10       4.74       5.77
C       5.73       5.90       6.26
C       6.47       6.72       5.41
C       6.59       6.41       4.05
C       3.46       1.72       7.37
C       4.27       2.47       6.52
C       4.31       3.87       6.66
C       3.51       4.42       7.68
C       2.71       3.60       8.47
N       2.68       2.26       8.32
O       6.47       5.82       1.28
O       5.74       3.73       1.74
