23

C      12.79       8.15      11.27
C      12.45       8.67      12.65
C      11.76       7.85      13.55
C      11.41       8.31      14.84
C      11.81       9.61      15.22
C      12.51      10.42      14.33
C      12.82       9.96      13.05
C       9.06       5.65      16.12
C       9.73       6.49      15.25
C      10.65       7.43      15.75
C      10.81       7.47      17.14
C      10.09       6.59      17.94
N       9.23       5.68      17.46
H      11.51       6.84      13.25
H      11.53       9.98      16.20
O      13.22       8.97      10.41
O      12.57       6.91      11.07
H      13.34      10.59      12.33
H      12.82      11.42      14.63
H       9.52       6.44      14.18
H      10.20       6.59      19.02
H       8.34       4.92      15.75
H      11.51       8.17      17.60
