23

C       7.81      10.34      16.59
C       7.92      10.00      15.13
C       8.64      10.83      14.27
C       8.79      10.52      12.91
C       8.17       9.35      12.41
C       7.42       8.54      13.26
C       7.30       8.85      14.62
C      10.43      13.54      11.30
C       9.62      12.79      12.16
C       9.59      11.39      12.02
C      10.38      10.84      11.00
C      11.18      11.65      10.21
N      11.21      13.00      10.35
H       9.11      11.73      14.67
H       8.25       9.11      11.36
H       6.92       7.65      12.87
H       6.74       8.21      15.30
H      10.48      14.62      11.38
H       9.02      13.29      12.91
H      10.43       9.76      10.86
H      11.85      11.22       9.47
O       7.42       9.43      17.40
O       8.15      11.52      16.94
