76

La       7.58      -2.31       9.69
La       3.60      -1.83       8.52
La      -1.82       9.43       1.67
La       2.17       8.95       2.84
H       4.02       0.51       1.84
H       3.98       2.06       2.06
H       6.37       2.03       2.40
H       5.59       1.25       3.52
H       4.14       6.07       7.25
H       3.38       6.32       5.91
H       5.82       5.78       1.85
H       4.70       4.71       2.15
H       5.66       7.77       6.64
H       5.73       6.51       5.72
H       4.70       1.48      11.09
H       3.83       4.91       0.03
H       1.74       6.61       9.51
H       1.78       5.06       9.29
H      -0.61       5.08       8.95
H       0.17       5.86       7.84
H       1.62       1.04       4.10
H       2.39       0.80       5.44
H      -0.06       1.34       9.50
H       1.06       2.41       9.20
H       0.10      -0.65       4.71
H       0.03       0.61       5.64
H       1.06       5.63       0.27
H       1.93       2.21      11.33
C       4.76       1.55       0.25
C       4.52       1.33       1.73
C       5.83       1.25       2.58
C       6.64       0.02       2.28
C       3.11       7.84       7.25
C       3.92       6.75       6.59
C       4.90       5.52       1.66
C       3.97       6.62       2.06
C       4.98       8.15       4.75
C       5.18       7.27       5.97
C       4.70       5.31       0.17
C       5.74      -0.27      10.86
C       1.00       5.57      11.10
C       1.24       5.79       9.63
C      -0.07       5.87       8.78
C      -0.88       7.09       9.07
C       2.65      -0.72       4.10
C       1.85       0.37       4.76
C       0.86       1.59       9.69
C       1.79       0.50       9.29
C       0.78      -1.03       6.60
C       0.59      -0.15       5.38
C       1.06       1.81      11.19
C       0.02       7.38       0.50
O       5.53      -0.70       9.66
O       6.79       4.14       0.12
O       3.94      10.67       2.37
O      -0.10       0.11       1.99
O       2.96       6.40       2.77
O       4.21       7.84       1.64
O       3.77      -2.74      10.92
O       5.89      -3.39      11.13
O       5.97       8.36       3.98
O       3.85       8.68       4.60
O       5.83      -3.19       8.13
O       1.86       7.97       7.00
O       0.23       7.82       1.70
O      -1.03       2.98      11.24
O       1.83      -3.56       8.99
O       5.86       7.01       9.36
O       2.80       0.71       8.59
O       1.55      -0.72       9.71
O       1.99       9.85       0.43
O      -0.13      10.51       0.23
O      -0.21      -1.24       7.38
O       1.91      -1.56       6.76
O      -0.06      10.31       3.22
O       3.90      -0.85       4.36
