13

H       6.59       9.94       9.80
H       5.72      11.56      11.49
H       8.89      10.32      14.13
H       9.57       8.65      12.38
N       8.13       9.25      11.02
C       7.07      10.04      10.77
C       6.59      10.95      11.72
C       7.24      11.07      12.95
C       8.34      10.24      13.20
C       8.74       9.34      12.22
C       6.77      12.04      14.01
O       5.57      12.48      13.83
O       7.54      12.34      14.95
