13

H       2.92       5.43       8.37
H       3.50       4.04       6.34
H       6.66       6.82       5.50
H       6.00       8.09       7.58
C       3.75       5.68       7.71
C       4.07       4.93       6.58
N       4.44       6.80       8.04
C       5.13       5.33       5.76
C       5.46       7.20       7.25
C       5.83       6.50       6.11
C       5.55       4.53       4.55
O       4.77       3.55       4.25
O       6.61       4.83       3.95
