16

C       2.47       0.41       5.60
C       2.05      -0.90       5.32
C       2.93      -1.97       5.49
C       4.26      -1.72       5.86
C       4.69      -0.41       6.09
C       3.79       0.65       6.00
C       1.49       1.52       5.46
C       2.45      -3.38       5.32
O       1.75       2.68       5.96
O       0.42       1.26       4.81
O       1.40      -3.55       4.57
O       3.05      -4.33       5.89
H       1.03      -1.09       5.00
H       4.94      -2.56       5.98
H       5.73      -0.23       6.37
H       4.10       1.66       6.24
