534

C      35.09      20.74      15.89
C      36.11      21.64      15.56
C      36.95      21.05      14.63
C      36.45      19.78      14.31
C      37.17      18.94      13.43
C      38.40      19.38      12.89
C      38.88      20.67      13.21
C      38.15      21.52      14.07
C      36.16      22.93      16.11
C      35.12      23.33      16.98
C      34.07      22.45      17.31
C      34.06      21.14      16.77
C      34.01      19.17      14.31
C      33.50      17.91      14.65
C      34.34      17.33      15.59
C      35.35      18.24      15.91
C      34.33      16.03      16.14
C      35.38      15.65      16.99
C      36.41      16.55      17.33
C      36.39      17.86      16.79
C      33.29      20.01      13.43
C      32.04      19.58      12.92
C      31.54      18.30      13.27
C      32.28      17.45      14.12
C      35.23      19.48      15.10
C       7.43      37.97      15.94
C       6.93      36.70      15.62
C       7.70      36.16      14.60
C       8.73      37.05      14.28
C       9.60      36.77      13.21
C       9.42      35.58      12.46
C       8.39      34.68      12.81
C       7.53      34.96      13.89
C       5.86      36.13      16.33
C       5.31      36.85      17.41
C       5.81      38.13      17.77
C       6.87      38.69      17.01
C       9.83      38.60      15.92
C      10.32      39.87      15.62
C       9.55      40.41      14.59
C       8.52      39.52      14.29
C       9.73      41.60      13.86
C       8.87      41.86      12.77
C       7.82      40.98      12.45
C       7.64      39.81      13.23
C      10.39      37.86      16.99
C      11.43      38.43      17.77
C      11.92      39.72      17.44
C      11.38      40.44      16.35
C       8.63      38.29      15.11
C      21.80      13.48       7.66
C      22.82      13.31       8.60
C      23.66      14.42       8.56
C      23.15      15.33       7.62
C      23.87      16.51       7.33
C      25.11      16.75       7.99
C      25.59      15.83       8.94
C      24.86      14.66       9.24
C      22.87      12.18       9.45
C      21.83      11.24       9.36
C      20.78      11.39       8.43
C      20.77      12.51       7.57
C      20.71      15.63       7.10
C      20.20      15.97       5.84
C      21.04      15.45       4.87
C      22.05      14.71       5.49
C      21.02      15.62       3.47
C      22.07      15.08       2.70
C      23.11      14.34       3.31
C      23.08      14.14       4.72
C      20.00      15.98       8.27
C      18.75      16.64       8.16
C      18.25      16.97       6.88
C      18.98      16.66       5.72
C      21.93      14.79       6.97
C      20.73      42.43      22.56
C      20.23      43.34      21.62
C      20.99      44.49      21.66
C      22.02      44.32      22.59
C      22.89      45.39      22.88
C      22.71      46.64      22.23
C      21.68      46.78      21.27
C      20.82      45.71      20.97
C      19.15      43.00      20.78
C      18.61      41.71      20.86
C      19.11      40.77      21.79
C      20.17      41.14      22.65
C      23.12      42.12      23.11
C      23.62      41.75      24.37
C      22.85      42.37      25.35
C      21.81      43.08      24.73
C      23.03      42.41      26.74
C      22.17      43.22      27.51
C      21.12      43.95      26.91
C      20.93      43.86      25.50
C      23.69      41.57      21.94
C      24.73      40.61      22.05
C      25.21      40.25      23.32
C      24.68      40.84      24.49
C      21.92      42.99      23.25
C       8.51      24.25       5.48
C       9.53      23.52       4.87
C      10.37      23.00       5.85
C       9.86      23.35       7.10
C      10.58      23.01       8.27
C      11.81      22.32       8.16
C      12.29      21.96       6.88
C      11.57      22.29       5.72
C       9.57      23.35       3.47
C       8.54      23.89       2.69
C       7.48      24.62       3.29
C       7.47      24.81       4.70
C       7.42      23.64       7.62
C       6.90      24.56       8.55
C       7.73      25.67       8.59
C       8.75      25.50       7.64
C       7.71      26.78       9.45
C       8.76      27.72       9.38
C       9.80      27.57       8.43
C       9.78      26.46       7.54
C       6.71      22.45       7.34
C       5.46      22.21       7.96
C       4.96      23.14       8.89
C       5.68      24.31       9.21
C       8.63      24.19       6.96
C      34.03      34.46      23.11
C      33.53      34.83      24.37
C      34.30      34.21      25.35
C      35.32      33.49      24.73
C      36.19      32.70      25.52
C      36.02      32.65      26.93
C      34.98      33.40      27.53
C      34.13      34.20      26.75
C      32.46      35.73      24.50
C      31.91      36.30      23.34
C      32.41      35.97      22.06
C      33.46      35.03      21.95
C      36.42      34.13      22.57
C      36.91      33.23      21.62
C      36.14      32.07      21.67
C      35.11      32.26      22.59
C      36.31      30.84      21.01
C      35.45      29.77      21.32
C      34.40      29.94      22.26
C      34.23      31.20      22.88
C      36.99      35.42      22.67
C      38.03      35.81      21.79
C      38.51      34.88      20.84
C      37.97      33.58      20.76
C      35.22      33.59      23.25
C      32.95      24.45      20.09
C      32.85      24.62      21.49
C      32.68      25.90      22.08
C      32.63      27.06      21.25
C      32.75      26.90      19.83
C      32.90      25.61      19.29
C      32.54      25.94      23.57
C      32.73      28.05      18.88
C      33.16      23.07      19.55
C      32.46      28.42      21.88
C       2.98      38.93      19.84
C       1.79      39.67      20.02
C       0.76      39.24      20.89
C       0.90      38.00      21.60
C       2.09      37.24      21.41
C       3.10      37.72      20.55
C      -0.43      40.14      21.03
C       2.33      35.93      22.09
C       4.00      39.44      18.88
C      39.68      37.53      22.51
C      11.12      33.17      10.38
C      12.21      32.30      10.20
C      12.16      31.19       9.33
C      10.95      30.90       8.62
C       9.82      31.77       8.81
C       9.94      32.89       9.67
C      13.40      30.36       9.19
C       8.51      31.56       8.13
C      11.26      34.31      11.34
C      10.87      29.71       7.71
C       0.78      18.99      10.12
C       0.98      18.95       8.73
C       2.23      19.21       8.13
C       3.35      19.57       8.96
C       3.16      19.62      10.38
C       1.89      19.33      10.92
C       2.32      19.10       6.64
C       4.25      19.99      11.33
C      39.30      18.72      10.66
C       4.69      19.86       8.33
C      19.65       7.98       8.77
C      19.55       6.69       8.22
C      19.38       5.54       9.03
C       6.04      43.28      10.45
C      19.46       6.98      11.03
C      19.60       8.10      10.18
C       5.95      41.83       8.32
C      19.44       7.22      12.50
C      19.86       9.14       7.85
C       5.88      42.05      11.32
C      16.27      38.57      21.44
C      15.08      38.05      21.99
C      14.05      37.50      21.19
C      14.19      37.51      19.76
C      15.39      38.05      19.19
C      16.40      38.56      20.04
C      12.86      36.94      21.89
C      15.62      38.12      17.72
C      17.29      39.15      22.36
C      13.09      36.95      18.90
C      24.41      49.64      21.18
C      38.80      12.63      20.51
C      38.74      13.94      19.99
C      37.53      14.70      20.10
C      36.41      14.10      20.76
C      36.53      12.79      21.29
C      39.98      14.47      19.34
C      35.10      14.79      20.93
C      24.55      48.24      21.67
C      37.46      16.09      19.55
C      27.37      19.36       9.03
C      27.56      20.58       9.69
C      28.81      20.97      10.23
C      29.93      20.07      10.12
C      29.74      18.82       9.46
C      28.47      18.49       8.92
C      28.90      22.31      10.87
C      30.83      17.81       9.31
C      26.00      19.02       8.52
C      31.26      20.46      10.71
C       6.35      26.02       0.17
C      19.55      45.95      31.89
C      19.38      45.83      30.49
C      19.34      44.52      29.89
C      19.45      43.38      30.74
C      19.60      43.55      32.14
C      19.24      47.09      29.71
C      19.44      41.98      30.22
C       6.56      26.24       1.63
C      19.17      44.39      28.40
C      29.57      37.36      20.33
C      28.38      37.15      19.60
C      27.35      38.11      19.53
C      27.49      39.35      20.25
C      28.68      39.57      21.01
C      29.70      38.58      21.03
C      26.16      37.78      18.69
C      28.92      40.81      21.80
C      30.59      36.27      20.38
C      26.39      40.37      20.20
C      37.71      32.05      30.05
C      38.80      32.33      30.90
C      38.74      32.13      32.30
C      24.24      12.85       0.32
C      36.41      31.38      32.04
C      36.53      31.58      30.65
C      26.69      13.62       0.51
C      35.10      30.90      32.56
C      37.85      32.32      28.59
C      24.16      12.64       1.81
C      14.07      20.11       9.89
C      14.26      18.93      10.62
C      15.52      18.28      10.69
C      16.64      18.81       9.97
C      16.45      20.02       9.21
C      15.18      20.64       9.19
C      15.61      17.04      11.53
C      17.54      20.65       8.41
C      12.70      20.72       9.85
C      17.97      18.12      10.02
H      30.62      18.00      12.94
H      31.89      16.55      14.40
H      33.61      15.36      15.87
H      35.41      14.69      17.34
H      37.16      18.51      16.98
H      33.63      20.95      13.23
H      36.84      17.99      13.25
H      39.78      20.99      12.85
H      38.53      22.43      14.33
H      33.29      20.50      16.97
H      36.89      23.59      15.85
H      35.12      24.29      17.34
H      38.40      16.48      17.71
H      32.09      22.55      17.81
H      39.17      17.55      12.41
H      31.23      21.40      12.59
H      12.64      40.15      18.02
H      11.72      41.38      16.15
H      10.51      42.23      14.06
H       9.04      42.69      12.20
H       6.92      39.12      12.96
H       9.98      36.96      17.25
H      10.31      37.45      12.93
H       8.23      33.83      12.26
H       6.76      34.32      14.11
H       7.27      39.59      17.28
H       5.52      35.20      16.12
H       4.57      36.42      17.97
H       6.92      40.32      10.77
H       6.03      39.26      19.45
H      10.43      36.16      10.77
H      11.11      37.37      19.45
H      17.33      17.41       6.79
H      18.59      16.87       4.80
H      20.30      16.19       3.02
H      22.10      15.26       1.70
H      23.86      13.65       5.18
H      20.34      15.67       9.18
H      23.54      17.14       6.61
H      26.49      15.98       9.40
H      25.24      13.98       9.91
H      19.99      12.66       6.92
H      23.60      12.08      10.15
H      21.83      10.44      10.01
H      25.09      14.06       3.05
H      18.79      10.91       8.28
H      25.88      18.08       6.64
H      17.97      16.02       9.92
H      25.94      39.54      23.41
H      25.01      40.54      25.41
H      23.81      41.92      27.19
H      22.34      43.31      28.52
H      20.22      44.43      25.04
H      23.28      41.79      21.03
H      23.61      45.29      23.61
H      21.52      47.68      20.82
H      20.05      45.84      20.31
H      20.57      40.45      23.30
H      18.81      43.66      20.07
H      17.86      41.44      20.21
H      20.21      45.73      27.18
H      19.32      38.74      21.93
H      23.73      47.80      23.57
H      24.41      39.68      20.28
H       4.04      22.99       9.32
H       5.29      24.99       9.86
H       6.99      26.88      10.17
H       8.78      28.49      10.04
H      10.55      26.31       6.90
H       7.06      21.82       6.61
H      10.24      23.32       9.18
H      13.19      21.49       6.78
H      11.95      22.05       4.80
H       6.69      25.28       5.15
H      10.31      22.80       3.03
H       8.54      23.73       1.68
H      11.78      27.93       8.36
H       5.50      24.98       2.95
H      12.58      22.82       9.99
H       4.71      20.97       6.55
H      39.23      35.16      20.17
H      38.30      32.93      20.05
H      37.09      30.70      20.36
H      35.61      28.86      20.89
H      33.51      31.32      23.61
H      36.58      36.10      23.32
H      36.91      32.13      25.07
H      34.83      33.35      28.54
H      33.36      34.71      27.19
H      33.87      34.81      21.03
H      32.11      36.01      25.42
H      31.16      36.99      23.44
H      33.48      28.82      23.67
H      32.62      36.85      20.23
H      37.03      30.90      27.26
H      37.71      37.80      21.85
H      32.90      23.79      22.08
H      32.99      25.50      18.27
H      32.51      24.95      24.03
H      31.62      26.45      23.85
H      33.39      26.47      24.00
H      33.52      28.76      19.13
H      31.77      28.56      18.94
H      32.88      27.75      17.84
H      32.45      22.39      20.02
H      34.16      22.75      19.86
H      31.58      28.40      22.53
H      32.23      29.20      21.15
H       1.69      40.55      19.50
H       3.95      37.16      20.42
H      -0.32      41.08      20.48
H      -0.59      40.39      22.07
H      -1.31      39.64      20.63
H       1.52      35.23      21.84
H       2.36      36.07      23.17
H       3.27      35.45      21.79
H       4.18      40.50      19.08
H       3.57      39.37      17.87
H      39.43      38.34      23.21
H      39.99      36.71      23.15
H      13.08      32.49      10.72
H       9.13      33.50       9.80
H      14.25      30.78       9.74
H      13.69      30.30       8.15
H      13.22      29.36       9.59
H       8.12      30.57       8.38
H       8.63      31.64       7.05
H       7.75      32.29       8.42
H      12.20      34.83      11.14
H      11.34      33.88      12.35
H      11.71      29.74       7.01
H       9.99      29.72       7.07
H       0.18      18.71       8.13
H       1.76      19.37      11.94
H       1.40      18.74       6.19
H       3.11      18.40       6.36
H       2.53      20.08       6.21
H       4.64      20.98      11.08
H       5.05      19.25      11.28
H       3.92      20.03      12.37
H      38.91      17.81      10.19
H      38.66      19.54      10.34
H       4.96      19.04       7.67
H       5.50      19.91       9.06
H      19.60       6.59       7.21
H      19.69       9.03      10.59
H      19.22       4.33       7.24
H       5.02      41.34       8.62
H       6.80      41.19       8.56
H       6.94      44.26      12.98
H       5.18      44.53      12.91
H      19.59       8.27      12.76
H      19.15       9.07       7.03
H      20.86       9.04       7.42
H       5.01      41.49      10.97
H       5.64      42.29      12.35
H      14.98      38.06      23.01
H      17.24      38.96      19.62
H      12.97      36.94      22.98
H      12.70      35.90      21.59
H      11.98      37.53      21.66
H      14.82      38.68      17.24
H      15.66      37.11      17.30
H      16.56      38.61      17.46
H      17.47      38.45      23.18
H      16.86      40.05      22.81
H      12.84      35.94      19.24
H      13.40      36.81      17.86
H      39.66      12.08      20.42
H      22.42      49.97      21.75
H      40.83      13.79      19.43
H      40.28      15.41      19.81
H      39.81      14.64      18.28
H      34.71      15.08      19.95
H      35.22      15.68      21.54
H      34.34      14.17      21.41
H      25.49      48.15      22.22
H      24.62      47.58      20.80
H      38.29      16.68      19.95
H      36.57      16.64      19.87
H      26.76      21.22       9.78
H      28.35      17.59       8.46
H      27.98      22.89      10.78
H      29.69      22.91      10.41
H      29.11      22.20      11.93
H      31.22      17.54      10.29
H      31.64      18.22       8.70
H      30.50      16.89       8.82
H      25.61      19.88       7.96
H      25.35      18.88       9.39
H      31.54      21.46      10.35
H      32.07      19.82      10.38
H      19.59      46.88      32.32
H       6.39      23.92       0.17
H      19.21      47.98      30.34
H      18.32      47.08      29.13
H      20.09      47.21      29.04
H      20.23      41.85      29.49
H      18.47      41.77      29.75
H      19.59      41.23      31.00
H       5.84      26.98       1.99
H       7.56      26.67       1.76
H      18.30      44.97      28.09
H      18.94      43.37      28.09
H      28.28      36.26      19.10
H      30.54      38.74      21.57
H      26.27      36.84      18.15
H      26.00      38.56      17.95
H      25.28      37.69      19.32
H      28.12      40.94      22.53
H      28.96      41.67      21.14
H      29.86      40.79      22.36
H      30.77      35.91      19.36
H      30.16      35.44      20.94
H      26.14      40.58      19.15
H      26.70      41.34      20.60
H      39.66      32.69      30.47
H      35.72      31.39      30.05
H      40.83      32.69      32.45
H      26.98      12.74       1.09
H      26.51      14.46       1.18
H      21.41      12.80       0.73
H      21.93      11.12       0.46
H      34.34      30.79      31.78
H      38.79      31.89      28.24
H      37.93      33.41      28.46
H      25.00      12.01       2.13
H      23.28      12.09       2.12
H      13.46      18.53      11.12
H      15.05      21.49       8.65
H      14.68      16.83      12.07
H      16.39      17.15      12.27
H      15.81      16.18      10.90
H      17.93      19.94       7.69
H      18.34      20.97       9.08
H      17.21      21.53       7.86
H      12.31      20.77      10.87
H      12.06      20.03       9.29
H      18.25      17.95      11.06
H      18.78      18.73       9.62
N      37.52      16.07      18.06
N      32.99      22.96      18.07
N      39.25      18.54      12.14
N      31.19      20.45      12.20
N       7.10      41.20      11.26
N       5.31      38.73      18.94
N      10.16      35.31      11.28
N      11.89      37.82      18.96
N      24.21      13.95       2.52
N      19.70      10.48       8.50
N      25.95      17.83       7.63
N      17.90      16.82       9.28
N      20.39      44.87      27.70
N      18.60      39.44      21.72
N      23.45      47.79      22.58
N      25.19      39.88      20.92
N      10.90      28.45       8.50
N       6.40      25.01       2.47
N      12.65      22.09       9.27
N       4.63      21.14       7.56
N      33.67      28.80      22.66
N      31.90      36.68      20.95
N      36.75      31.76      27.75
N      38.49      37.15      21.71
