20

Cu       8.19       0.99       0.79
C       7.81      -3.84      -2.06
Cu       7.70      -0.99      -0.79
C       5.97      -2.61      -2.75
N       7.15      -2.67      -2.11
N       8.74       2.67       2.11
O       9.11      -0.18      -1.96
O       6.78       1.99      -0.18
O       6.34      -1.60       0.60
O       6.34       0.25      -1.59
O       9.55       1.60      -0.60
O       9.11      -1.99       0.18
O       6.78       0.18       1.96
O       9.55      -0.25       1.59
C       6.16      -0.90       1.65
C       9.73      -1.44       1.15
C       8.08       3.84       2.06
C       6.16       1.44      -1.15
C       9.92       2.61       2.75
C       9.73       0.90      -1.65
