20

Cu       3.40       7.52       0.78
Cu       1.35       7.65      -0.78
C       1.57       9.71       1.25
N      -0.40       7.62      -2.11
N       5.15       7.54       2.11
O       3.89       5.89      -0.28
O       4.27       8.67      -0.61
O       0.48       6.50       0.61
O       2.45       8.78      -1.98
O       2.64       9.18       1.69
O       2.30       6.39       1.98
O       2.11       5.99      -1.69
O       0.86       9.28       0.28
C       3.66       9.05      -1.67
C      -0.42       8.32      -3.27
C       6.09       8.48       1.91
C       5.17       6.85       3.27
C       1.09       6.11       1.67
C      -1.34       6.68      -1.91
C       3.18       5.46      -1.25
