140

Cr       6.60       3.79       9.37
Cr      10.02       3.84       9.39
Cr       8.26       6.82       9.48
Cr      15.57       9.04      18.69
Cr      13.64       6.00       0.10
Cr      12.15       9.04      18.81
H      12.37       4.88       3.66
H       9.18       7.94       5.73
H      11.97       8.63       4.03
H      11.64       8.43       6.27
H       3.96       4.97       6.09
H       3.70       5.08       3.73
H       5.36       9.31       3.65
H       7.23       9.21       3.56
H       7.31       9.15       5.96
H       5.44       9.09       6.04
H      10.64       4.58       3.36
H      10.43       2.10       3.11
H       5.15       0.94       3.68
H       5.93       3.25       5.54
H       5.25       1.56       5.98
H      11.70       4.30      13.07
H      11.93       4.39      15.53
H      11.06       9.16      15.33
H       9.19       9.14      15.48
H       9.03       9.04      13.11
H      10.28       4.41       5.59
H      10.90       9.01      12.97
H       7.11       7.82      13.07
H       6.97       7.89      15.51
H       3.13       5.02      15.26
H       3.94       3.33      15.40
H       4.14       3.26      13.02
H       3.30       4.93      12.89
H       6.23       2.11      12.85
H       6.32       1.84      15.27
H       0.55       0.19      14.92
H      12.05       4.69       5.91
H      11.09       2.01      15.04
H      11.12       2.14      12.68
H       0.48       0.30      12.53
H      13.19       7.33       4.07
H      12.82       7.08       6.33
H       9.50       8.16       3.54
H       8.98       6.46       3.27
H       8.66       6.22       5.50
H       2.16       2.36       5.07
H       4.65       3.45       1.17
C       8.47       2.35       7.32
C       9.70       7.10       3.83
C      11.15       6.70       3.50
C      10.75       6.45       6.06
C      11.90       7.44       5.83
C       9.47       6.95       5.33
C       5.24       6.60       3.39
C       6.21       7.37       4.03
C       6.34       7.29       5.41
C       4.58       5.67       5.54
C       4.45       5.72       4.17
C      10.42       6.28       7.50
C       6.29       8.85       4.03
C       6.37       8.76       5.53
C       5.53       6.45       6.18
C       8.35       1.65       3.12
C       7.25       1.37       3.94
C       7.31       1.60       5.29
C       9.72       1.95       5.13
C       9.56       1.96       3.74
C       5.83       1.80       3.85
C       5.93       2.16       5.33
C       5.99       6.05       7.50
C       8.51       1.89       5.94
C      10.93       6.30      15.72
C      10.12       7.22      15.03
C      10.00       7.16      13.66
C      11.27       5.13      13.61
C      11.39       5.18      15.01
C      10.10       8.72      15.00
C       9.99       8.64      13.50
C      10.66       6.20      12.91
C       5.71       6.14      15.65
C       8.43       2.14      11.26
C       5.27       5.01      14.95
C       5.36       4.96      13.58
C       6.57       7.04      13.58
C       6.51       7.07      14.98
C       3.93       4.34      14.92
C       4.04       4.29      13.41
C       5.89       6.04      12.87
C       8.38       1.17      15.28
C       9.42       0.72      14.47
C       9.38       0.84      13.11
C      10.38       6.15      11.48
C       7.13       1.69      13.29
C       7.18       1.57      14.68
C      10.88       1.03      14.54
C      10.86       1.12      13.04
C       8.28       1.45      12.51
C       4.87       6.76       1.99
C      11.43       6.93       2.07
C       8.38       1.13       1.77
C       5.07       6.50      16.90
C      11.51       6.71      17.00
C       6.07       5.89      11.44
C       8.47       0.89      16.69
C      11.35       5.23       3.91
C      11.13       5.10       5.42
C      12.13       7.58       4.32
C      11.16       2.04       5.59
C       5.60       2.91       2.87
O       5.64       4.89       7.88
O      10.58       5.06      10.85
O       9.64       7.09      11.02
O       6.91       6.66      10.88
O       8.29       4.82       9.42
O       9.53       0.86       1.31
O       5.05       7.86       1.32
O       4.15       5.82       1.59
O      12.35       6.21       1.55
O      11.05       8.04       1.60
O       7.32       0.63       1.29
O       7.38       2.71       7.93
O       9.64       0.69      17.10
O       5.17       7.70      17.34
O       4.26       5.65      17.38
O      12.47       6.05      17.57
O      11.16       7.87      17.39
O       7.44       0.47      17.30
O      13.87       8.04      18.81
O       9.59       2.52       7.82
O      10.58       5.13       8.02
O       9.64       7.17       7.98
O       6.91       6.73       8.06
O       5.64       4.81      10.92
O       7.38       2.64      10.75
O       9.59       2.44      10.86
O      11.52       1.74       6.72
O      12.16       2.37       4.67
O       6.35       3.88       2.84
O       4.60       2.76       1.91
