40

Cu      -4.84       6.20      15.50
Cu      -4.84      13.43      15.50
C      -3.08       5.07      13.50
Cu      -4.85       3.65      15.21
Cu      -4.86      15.98      15.21
C      -3.70       9.12      15.58
C      -6.62       5.07      13.49
C      -6.61      14.55      13.49
C      -6.00       9.12      15.58
C      -6.00      10.52      15.59
C      -3.09      14.55      13.50
C      -3.70      10.52      15.59
N      -4.85       8.42      15.58
N      -4.85      11.21      15.59
N      -4.85       1.43      15.13
C      -6.61       4.79      17.21
N      -4.85      -1.35      15.12
C      -6.00       0.74      15.12
O      -6.26       3.88      13.81
O      -6.25       6.15      14.07
C      -3.08      14.86      17.22
O      -3.45      15.73      13.82
O      -3.45      13.46      14.08
C      -3.70      -0.66      15.12
O      -6.25       5.97      16.89
O      -6.25       3.71      16.63
O      -3.44      13.68      16.91
O      -3.45      15.94      16.64
O      -3.44       5.98      16.90
O      -3.45       3.71      16.64
O      -6.25      13.68      16.89
O      -6.25      15.95      16.63
C      -3.08       4.79      17.22
O      -3.44       3.88      13.82
O      -3.45       6.15      14.08
C      -3.70       0.74      15.12
O      -6.26      15.73      13.80
O      -6.24      13.47      14.07
C      -6.61      14.86      17.21
C      -6.00      -0.66      15.12
