13

N       0.26      20.23      23.21
N       2.16      21.68      25.39
N       3.34      19.25      23.73
N       0.85      18.70      25.96
Zn       1.66      19.91      24.61
C      -0.46      21.37      23.19
C      -0.19      19.49      22.12
C       1.88      22.18      26.61
C       2.94      22.64      24.76
C       3.42      18.66      22.53
C       4.64      19.39      24.17
C       1.22      18.44      27.23
C      -0.29      17.94      25.74
