13

N       3.38      17.04      19.58
N       6.06      15.68      20.93
C       2.75      17.84      18.70
C       2.55      15.95      19.76
C       7.59      17.87      18.87
C       6.02      14.58      20.16
C       7.06      15.45      21.86
C       6.27      19.58      18.59
N       4.69      18.40      22.17
N       6.40      18.37      19.26
Zn       5.14      17.42      20.50
C       3.42      18.66      22.53
C       5.48      18.87      23.21
