13

C       0.29       5.25      24.35
N      -0.26       2.96      26.88
N      -2.16       1.50      24.70
N      -3.34       3.93      26.36
N      -0.85       4.49      24.13
Zn      -1.66       3.27      25.48
C       0.46       1.81      26.90
C       0.19       3.69      27.97
C      -1.88       1.00      23.48
C      -2.94       0.54      25.33
C      -3.42       4.52      27.56
C      -4.64       3.79      25.92
C      -1.22       4.75      22.86
