13

Zn       9.38       5.52       7.98
C       9.04       6.97      10.69
N      11.14       5.13       7.06
N       8.46       3.78       8.41
C       6.93       5.96       6.34
C      11.77       5.94       6.18
C      11.97       4.04       7.24
C       8.25       7.68       6.07
C       8.50       2.68       7.64
C       7.46       3.55       9.34
N       9.83       6.50       9.64
N       8.12       6.47       6.74
C      11.10       6.76      10.00
