13

Zn       7.14      11.20       9.12
N       6.17       9.51       9.64
C       9.47      11.50       7.29
C       9.84       9.88       8.70
C       4.71      11.55       7.50
C       5.99      13.25       7.06
N       7.28      12.31      10.76
C       6.72      13.53      10.96
C       5.30       9.47      10.67
C       6.01       8.32       8.95
C       7.95      12.01      11.93
N       8.90      10.82       8.30
N       5.89      12.10       7.83
