36

H      10.04       2.81       8.11
H      10.69      -2.88       2.77
H      12.19       2.87       9.35
H      18.98      -2.93       1.52
H      14.23       1.90       8.34
H      16.94      -1.95       2.52
H       9.93       1.76       5.87
H      10.80      -1.84       5.01
H      13.63      -1.33       6.24
H      17.53       1.27       4.62
C      15.61      -1.42       5.38
C      15.56       1.36       5.49
C      16.73      -0.68       4.92
C      14.44       0.62       5.95
C      15.56       2.81       5.47
C      15.61      -2.87       5.40
C      12.15       2.42       8.37
C      19.02      -2.48       2.50
C      13.30       1.86       7.80
C      17.87      -1.92       3.07
C      13.24       1.25       6.54
C      17.93      -1.31       4.33
C      12.01       1.20       5.85
C      19.16      -1.27       5.02
C      10.87       1.78       6.41
C      20.30      -1.85       4.47
C      10.93       2.38       7.67
C      20.23      -2.45       3.21
C      14.48      -0.76       5.88
C      16.69       0.70       4.99
O      16.66       3.44       5.44
O      14.50      -3.50       5.43
O      14.46       3.44       5.44
O      16.71      -3.50       5.43
F      11.92       0.59       4.65
F      19.24      -0.66       6.23
