15

C      19.78       9.01      29.08
C      15.12       6.02      30.00
O      18.03      11.60      32.24
Zn      17.06       7.93      28.80
Zn      14.75       8.79      29.81
C      17.12      11.39      33.18
O      14.30       9.70      28.16
O      16.08       8.70      27.14
O      18.94       8.22      28.50
O      19.54       9.84      30.01
C      15.10       9.51      27.15
O      14.25       6.95      30.25
O      16.19       6.16      29.31
Zn      17.78      10.20      30.99
O      16.52       9.03      30.31
