16

C       6.32       1.16      22.56
O       9.88       0.34      21.10
O       8.05      -2.66      21.85
O       8.93       1.93      19.75
Zn       7.02       1.23      19.75
O       7.53      -0.64      19.55
C       7.27      -3.56      21.42
O       5.64       1.31      18.24
C       4.88       0.32      18.00
O       6.25      -3.40      20.63
O       4.64      -0.67      18.80
O       7.13       0.19      22.72
Zn       8.24      -0.72      21.34
O       6.12       1.80      21.46
C       9.92       1.30      20.26
Zn       6.02      -1.71      19.71
