14

Zn       5.61      12.88       9.61
C       8.43      12.87       9.28
C       5.01      10.14       9.79
C       8.06      10.36      13.61
O       8.55      12.14      10.31
O       7.31      13.24       8.75
O       4.70      11.23       9.16
O       5.94      10.03      10.65
C       4.91      14.00      11.63
Zn       7.28      11.21      11.50
O       8.47       9.77      12.56
O       7.26      11.36      13.51
O       5.77      13.05      11.73
O       4.51      14.37      10.46
