14

Zn      15.56      22.43      39.84
C      14.49      21.76      41.87
C      17.77      25.25      43.86
C      15.35      25.15      39.45
C      18.36      22.01      40.12
O      14.17      21.27      40.72
O      15.38      22.68      41.94
O      14.99      24.02      38.94
O      16.13      25.30      40.45
O      17.28      21.62      39.55
O      18.48      23.00      40.91
O      16.99      24.22      43.78
O      18.27      25.75      42.81
Zn      17.15      24.19      41.77
