108

Cr       4.52       3.87       9.31
Cr      13.67       6.83       9.31
Cr      12.01       3.84       9.40
Cr       6.60       9.10      18.51
Cr       9.85       8.92       0.10
Cr       8.32       6.13      18.65
H      10.41       8.67       3.88
H      11.67       4.20       5.60
H       8.70       5.22       3.97
H       9.20       4.95       6.12
H       0.97       0.25       3.74
H       3.67       1.17       5.71
H       6.47       4.74       3.33
H       5.30       4.28       5.57
H      12.03       8.02       3.56
H       5.58       7.36       5.58
H      11.22       4.41      15.81
H      12.98       6.40      13.20
H       2.10       1.87      15.00
H       1.95       1.55      12.97
H       6.71       8.56      14.67
H      12.39       7.92       5.80
H       5.15       8.50      12.62
H       6.67       5.83      12.52
H      10.70       8.42       6.14
H       8.86       6.67       6.46
H      12.40       5.53       3.16
H      12.91       5.46       5.36
H      10.56       1.50       5.47
H       2.90       3.22       4.25
H      10.38       3.40      13.98
H       8.41       7.97       4.66
C       4.87       6.22       7.32
C      11.47       5.32       3.74
C      10.46       6.47       3.53
C      10.97       6.25       6.06
C       9.47       5.99       5.83
C      11.83       5.24       5.23
C       2.74       1.47       6.19
C       2.49       1.63       3.20
C       1.63       1.05       4.07
C       1.58       1.38       5.51
C       5.40       6.36       5.97
C      11.32       6.01       7.46
C       5.11       6.32       2.97
C       5.71       5.39       3.74
C       5.45       5.28       5.17
C      12.25       5.69      12.85
C      11.41       6.49      15.67
C      11.51       5.24      15.16
C      11.57       4.92      13.71
C       2.92       1.48      12.49
C       3.10       1.76      15.40
C       4.18       1.59      14.60
C       2.87       2.22       7.45
C       4.05       1.24      13.18
C       5.99       6.61      12.19
C       5.90       6.66      15.16
C       6.23       7.66      14.31
C       5.79       7.68      12.94
C       2.69       0.99       1.91
C      10.13       6.59       2.10
C       5.74       6.74       1.72
C       3.11       1.20      16.73
C      10.65       6.71      16.90
C       5.09       6.31      11.11
C       6.16       6.92      16.55
C      12.09       5.63      11.39
C       3.01       2.21      11.25
C      11.08       7.79       4.08
C      11.32       7.68       5.59
C       9.14       6.18       4.33
Cl      14.65       7.27       3.54
Cl      11.85       7.97      14.81
Cl       5.83       1.82      15.22
Cl       5.50       0.64      12.33
Cl       4.95       5.24      14.73
Cl      10.86       3.73       3.16
O       4.04       2.51       7.84
O      12.38       6.72      10.74
O      11.12       4.90      10.91
O       1.95       2.74      10.79
O       2.79       4.85       9.34
O       5.42       7.87       1.26
O       1.69       0.53       1.28
O       3.88       0.74       1.56
O      10.35       7.69       1.54
O       9.44       5.67       1.58
O       6.73       6.07       1.26
O       5.02       5.09       7.88
O       5.76       8.05      16.94
O       2.02       0.70      17.17
O       4.23       0.92      17.23
O      10.68       7.87      17.43
O       9.79       5.84      17.26
O       7.06       6.24      17.15
O       8.31       8.11      18.64
O      14.98       7.11       7.76
O      12.27       6.69       7.95
O      11.00       4.87       7.90
O       1.84       2.71       8.00
O       4.16       2.55      10.84
O       5.13       5.12      10.67
O       4.19       7.14      10.77
O      11.28       1.60       6.14
O       3.32       2.69       3.53
O      10.85       3.84      13.23
O       8.17       7.18       4.12
