24

C       2.43       4.92      10.74
C       2.44       5.84       9.49
C       1.26       6.83       9.53
C      -0.06       6.05       9.59
C      -0.10       5.12      10.81
C       1.10       4.15      10.77
C      -1.30       6.91       9.49
C       3.74       6.58       9.36
C       0.95       3.17      11.91
O      -2.43       6.36       9.77
O      -1.25       8.12       9.08
H       2.56       5.51      11.65
H       3.27       4.21      10.69
H       2.34       5.21       8.60
H       1.27       7.47       8.64
H       1.35       7.49      10.40
O       4.04       7.54      10.11
H      -1.04       4.56      10.81
H      -0.07       5.72      11.73
H       1.01       3.55       9.86
O       4.58       6.23       8.41
O       0.30       2.10      11.67
O       1.42       3.41      13.09
H      -0.11       5.40       8.69
