24

H       8.49       8.26       3.61
H       7.78       9.57       4.58
H       8.71       8.56       6.67
H       9.77       6.30       6.63
H       9.70       6.28       4.87
H      11.16       8.37       6.58
H      12.09       9.21       4.46
H      11.11       8.05       3.54
H      10.04      10.22       5.41
O      13.48       7.41       5.50
O      12.30       5.65       6.19
O       7.00       6.23       5.15
O       6.47       7.54       6.86
O      10.75      11.67       3.60
O       9.64      10.36       2.18
C       8.61       8.86       4.53
C       8.61       7.94       5.77
C       9.79       6.94       5.74
C      11.10       7.72       5.68
C      11.15       8.65       4.46
C       9.95       9.62       4.50
C      12.35       6.87       5.78
C       7.31       7.20       5.91
C      10.10      10.60       3.36
