11

Ni       0.00       3.83       3.83
C       1.55       1.11       3.78
C      -0.61       0.93       4.07
O       2.01       4.46       3.84
O      -2.01       3.84       4.46
C       1.70       5.72       3.89
N      -0.36       3.91       1.83
C      -1.70       3.89       5.72
C      -1.55       3.78       1.11
C       0.61       4.07       0.93
N       0.36       1.83       3.91
