16

O       5.63       8.49       8.23
O       6.19      10.51       7.44
C       6.23       9.27       7.42
C       7.04       8.62       6.30
C       7.59       9.42       5.34
C       8.28       8.86       4.25
C       8.44       7.49       4.15
C       7.88       6.69       5.14
C       7.18       7.26       6.21
C       9.16       6.90       2.95
O       9.34       7.69       1.98
O       9.50       5.69       3.00
H       7.51      10.36       5.40
H       8.63       9.42       3.57
H       7.97       5.75       5.09
H       6.79       6.70       6.87
