16

O       0.72       5.14      14.92
O       1.28       3.12      15.71
O       4.43       5.94      21.17
H       2.60       3.27      17.75
H       3.72       4.21      19.58
H       3.06       7.88      18.06
O       4.59       7.94      20.15
C       1.32       4.36      15.73
C       2.13       5.01      16.85
C       2.68       4.21      17.81
C       3.37       4.77      18.90
C       3.53       6.14      19.00
C       2.97       6.94      18.01
C       2.27       6.37      16.94
C       4.25       6.73      20.20
H       1.88       6.93      16.28
