16

C       7.14      -1.12      13.05
C       6.45      -1.68      11.97
C       6.29      -3.04      11.87
C       6.85      -3.84      12.86
C       7.56      -3.27      13.93
C       5.57      -3.63      10.66
H       7.22      -0.17      13.12
H       6.10      -1.11      11.29
H       6.76      -4.78      12.81
H       7.94      -3.83      14.59
O       9.10      -2.04      15.95
O       8.54      -0.03      15.16
O       5.39      -2.85       9.70
O       5.23      -4.84      10.72
C       8.51      -1.26      15.14
C       7.69      -1.91      14.02
