15

Fe       9.11      17.13      18.23
C       7.16      19.72      18.02
C      11.64      19.17      17.96
C      10.23      17.43      15.33
C       8.02      17.50      21.13
N       7.72      18.70      18.16
N      10.72      18.51      18.27
N      10.51      15.57      18.16
N       7.51      15.76      18.27
N       9.12      17.14      20.43
C      11.08      14.55      18.02
C       8.00      16.84      15.33
C       6.58      15.10      17.96
C      10.22      16.78      21.12
N       9.11      17.13      16.04
