15

Fe       3.05      17.13      29.23
C       5.01      19.72      29.43
C       0.53      19.17      29.50
C       4.14      17.50      26.33
C       4.16      16.84      32.12
N       4.44      18.70      29.29
N       3.05      17.14      27.03
N       1.44      18.50      29.19
N       3.05      17.13      31.42
C       1.09      14.55      29.43
N       1.66      15.57      29.29
C       1.95      16.78      26.33
N       4.66      15.76      29.18
C       5.58      15.10      29.50
C       1.93      17.43      32.12
