116

Cu       5.18       4.54      13.89
Cu       2.55       4.54      13.89
H       3.99       7.96       3.28
H       4.13       1.16      24.49
H       3.26       1.26       3.42
H       3.06       7.82      24.34
H       3.07       7.91      26.73
H       3.26       1.18       1.04
H       4.01       1.17      26.88
H       3.90       7.95       0.90
H       2.00       5.71       9.77
H       2.01       3.34      18.02
H       5.67       3.47       9.60
H       5.66       5.64      18.18
H       1.46       7.95       6.73
H       2.20       7.64       8.31
H       7.06       7.15       7.41
H       7.70       6.46       8.94
H       0.49       8.76       9.75
H       6.52       8.62       9.33
H       7.65       0.39       8.20
H       1.86       1.16      21.25
H       2.40       1.40      19.57
H       7.29       1.64      20.65
H      -0.00       2.02      18.95
H       0.80       8.74      18.65
H       6.85       8.78      19.15
H       0.34       8.36      20.36
H       7.53       4.17       7.46
H       6.49       5.11       6.31
H       6.83       3.46       4.54
H       0.62       4.11       5.13
H       0.90       2.05       6.57
H       0.80       1.68       4.80
H       7.16       1.38       5.86
H       7.72       5.59      20.39
H       6.86       4.04      20.62
H       6.52       4.54      23.03
H       0.48       4.50      22.57
H       0.50       7.02      22.46
H       0.05       6.40      24.09
H       6.55       7.04      22.99
C       3.86       7.08      13.89
C       3.86       2.01      13.89
C       3.87       4.55      11.31
C       3.86       4.54      16.47
C       3.83       5.82       4.91
C       3.88       3.30      22.87
C       3.54       3.45       4.96
C       3.44       5.64      22.81
C       4.82       4.02       7.71
C       4.80       5.10      20.07
C       2.77       5.34       7.78
C       2.78       3.74      19.99
C       4.87       4.00       9.10
C       4.86       5.11      18.68
C       2.80       5.26       9.19
C       2.80       3.82      18.59
C       3.76       4.67       7.05
C       3.75       4.43      20.73
C       3.62       4.60       2.82
C       3.58       4.51      24.95
C       3.76       5.82       3.51
C       3.80       3.29      24.27
C       3.51       3.40       3.56
C       3.41       5.69      24.21
C       3.86       7.01       2.78
C       3.94       2.11      24.99
C       3.38       2.19       2.88
C       3.22       6.90      24.89
C       3.85       4.61       9.85
C       3.85       4.48      17.93
C       3.46       5.78      27.04
C       3.56       3.32       0.73
C       3.63       3.32      27.09
C       3.61       5.79       0.68
C       3.55       4.53      26.37
C       3.59       4.57       1.40
C       3.25       6.95      26.28
C       3.41       2.15       1.49
C       3.85       2.12      26.38
C       3.78       7.00       1.39
C       3.86       8.49      13.89
C       3.87       0.60      13.89
C       1.44       7.25       7.59
C       0.04       7.29       8.21
C       7.55       8.62       8.91
C       1.65       1.74      20.33
C       0.24       1.40      19.84
C       0.11       9.00      19.48
C       6.82       4.09       6.61
C       7.53       3.48       5.40
C       0.24       2.06       5.68
C       6.92       5.10      20.97
C       7.31       5.07      22.45
C       7.50       6.47      23.03
N       3.70       4.65       5.61
N       3.68       4.46      22.17
N       0.57       4.54      13.89
N       7.15       4.54      13.89
O       4.97       6.46      13.89
O       2.75       2.63      13.89
O       4.97       2.63      13.89
O       2.75       6.46      13.89
O       4.98       4.54      11.95
O       2.75       4.55      15.83
O       4.97       4.55      15.83
O       2.76       4.54      11.95
O       4.04       6.98       5.57
O       4.18       2.16      22.21
O       3.42       2.31       5.67
O       3.22       6.76      22.09
O       1.72       5.95       7.10
O       1.73       3.12      20.65
O       5.74       3.27       6.99
O       5.72       5.83      20.81
