66

Mn      23.03      18.29       2.45
Mn      19.47      15.21       3.30
Mn      17.88      12.10      -0.11
Mn      21.64      10.18      -2.45
Mn      25.20      13.26      -3.30
Mn      26.78      16.37       0.11
N      21.51      20.02       2.30
O      23.60      18.82       4.14
O      20.43      16.03       4.80
O      22.24      17.54       0.82
O      18.18      16.57       3.28
O      16.71      13.58       0.62
O      20.45      13.54       3.32
C      24.47       8.68      -2.07
O      27.55      17.81      -0.78
C      23.06      18.58       5.34
O      25.86      15.08       1.27
C      22.74       7.18      -2.36
O      24.29      19.43       1.45
C      21.36      16.89       4.51
C      21.37      16.61       1.07
C      17.06      16.70       2.57
C      17.23      14.43       1.44
C      20.01      12.67       2.44
C      27.22      19.11      -0.78
C      20.20      19.79       2.07
C      21.61       9.89      -5.34
O      21.07       9.65      -4.14
O      24.24      12.45      -4.80
C      25.28      18.87       0.82
C      25.00      15.67       2.07
O      27.95      14.89      -0.62
C      21.93      21.29       2.36
O      24.21      14.93      -3.32
O      26.49      11.91      -3.28
C      23.30      11.87      -1.07
C      23.31      11.58      -4.51
O      17.12      10.66       0.78
O      18.81      13.39      -1.27
C      16.01      10.70      -2.30
C      15.78      13.00      -2.36
O      20.37       9.04      -1.45
C      27.61      11.77      -2.57
O      22.42      10.94      -0.82
C      27.43      14.04      -1.44
C      24.66      15.80      -2.44
C      17.44       9.37       0.78
N      21.72      17.09       3.24
N      21.02      16.30       2.30
C      19.39       9.61      -0.82
N      18.41      14.17       2.04
N      18.95      12.92       1.71
N      25.55      17.57       1.01
N      24.77      16.96       2.00
C      28.66      17.77       2.30
N      16.31      11.91      -1.78
C      28.88      15.47       2.36
C      19.67      12.80      -2.07
N      23.16       8.46      -2.30
N      22.95      11.39      -3.24
N      23.65      12.17      -2.30
N      26.26      14.30      -2.04
N      25.72      15.55      -1.71
N      19.12      10.91      -1.01
N      19.90      11.51      -2.00
N      28.36      16.57       1.78
