36

C      -1.24       9.31      16.94
C      -2.17       3.47      14.95
C      -1.38       7.92      10.26
C      -1.93       4.97      12.56
C      -0.42       5.04       9.37
C      -2.12       2.82      13.69
C      -1.73       9.24      12.70
C      -1.70       5.72      11.38
C      -1.59       7.13      11.44
C      -2.02       5.64      13.83
C      -1.93       7.06      13.89
C      -1.74       7.81      12.70
C      -2.13       4.85      15.02
C      -1.33       9.29      10.31
C      -1.55       5.01      10.10
C      -1.16       8.65      15.63
C      -2.03       7.72      15.19
C      -1.51       9.96      11.55
H      -1.98       3.03      11.57
H      -2.25       2.88      15.86
H      -1.28       7.41       9.31
H       0.47       5.54       9.75
H      -2.19       1.74      13.64
H      -1.91       9.77      13.63
O      -0.16       9.85      17.39
O      -2.34       9.35      17.60
C      -0.29       4.33       8.08
O      -1.30       4.21       7.31
C      -2.00       3.54      12.53
O       0.87       3.87       7.76
H      -2.16       5.34      15.99
H      -1.18       9.87       9.40
H      -2.40       4.41       9.75
H      -0.29       8.90      15.03
H      -2.83       7.40      15.87
H      -1.52      11.04      11.58
