36

C      -3.18      15.35      17.99
C      -2.30      19.80      18.53
C      -3.19      25.79      18.95
C      -5.56      19.02      20.25
C      -4.60      21.17      19.51
C      -3.23      16.84      18.03
C      -3.32      17.59      19.15
C      -3.56      21.92      18.88
C      -0.10      19.88      17.46
C      -3.73      23.37      18.78
C      -4.49      19.74      19.63
C      -6.77      21.08      20.65
C      -3.36      19.06      19.12
C      -5.76      21.80      20.06
C      -2.42      21.24      18.39
C      -2.83      24.34      19.06
C      -1.10      19.17      18.08
C      -0.25      21.27      17.23
C      -1.37      21.93      17.68
H      -7.47      19.10      21.21
H      -5.50      17.93      20.30
H      -3.19      17.33      17.06
H      -3.40      17.06      20.11
H       0.81      19.37      17.13
O      -3.01      14.85      16.82
H      -4.72      23.73      18.49
O      -3.30      14.67      19.07
H      -7.64      21.59      21.06
H      -5.83      22.89      20.02
O      -2.31      26.63      19.33
C      -6.67      19.67      20.75
H      -1.83      24.12      19.42
O      -4.37      26.08      18.52
H      -1.00      18.10      18.23
H       0.52      21.82      16.69
H      -1.49      22.99      17.49
