36

C       4.20       9.92      16.75
C       5.91      10.71      12.30
H       5.89      11.23      13.26
H       6.16      11.37       8.97
H       5.20       6.85      15.52
C       5.16       4.94       7.89
H       3.45       8.71      15.08
C       6.09      10.78       9.88
H       6.10      12.52      11.19
C       5.30       6.34      14.57
H       5.83       4.49      11.20
C       5.84       9.29      12.27
C       4.34       9.22      15.46
H       6.07       8.92       8.84
H       5.09       4.39      15.43
C       6.04      11.44      11.14
H       6.31       9.85      15.08
H       4.21       5.36       9.80
C       5.64       5.02      12.13
H       5.44       3.21      13.25
H       6.75       6.86       8.96
C       5.61       8.54      13.45
C       5.51       7.13      13.40
C       5.94       8.62      11.00
O       4.08       4.41       7.44
C       5.85       7.20      10.94
O       6.26       4.91       7.23
C       5.66       6.44      12.13
C       6.05       9.41       9.81
C       5.25       4.97      14.52
O       5.22      10.04      17.52
C       5.47       9.24      14.73
O       3.05      10.39      17.07
C       5.08       5.61       9.20
C       5.95       6.54       9.64
C       5.43       4.30      13.28
