36

C       0.11      12.83      19.30
C       0.42      17.05      28.93
C       0.44      13.60      21.61
C       0.25      14.32      22.86
H       1.22      12.84      21.62
H       1.63      15.95      27.46
H       0.25      13.92      27.51
C       0.64      16.37      27.64
H      -1.11      14.33      20.29
C       0.45      13.46      26.55
C      -0.36      16.32      24.20
H       1.29      10.45      25.20
H       0.93      11.57      27.41
H       0.94      11.68      23.13
C      -0.25      13.69      20.45
C      -0.14      15.69      22.92
H      -0.03      16.07      20.78
C       1.02      11.51      25.24
C       0.83      12.14      26.49
C       0.83      12.21      24.07
H      -1.26      16.78      26.86
C      -0.27      16.50      21.75
H      -0.94      18.17      25.20
H      -0.76      18.40      20.91
C       0.47      13.59      24.07
H      -1.30      19.44      23.13
C      -0.12      15.60      25.40
C       0.29      14.24      25.35
O       1.46      17.38      29.61
O       1.03      11.94      19.40
C      -0.31      16.28      26.68
O      -0.76      17.25      29.36
C      -0.77      17.69      24.24
C      -0.67      17.81      21.82
O      -0.54      13.01      18.21
C      -0.95      18.41      23.08
