36

C      -2.05      13.20      13.36
C      -2.21      17.65      11.52
C      -1.94      15.98       9.73
C      -2.75      16.93      13.83
C      -2.24      14.92      10.67
C      -2.30      19.43       8.83
C      -2.63      18.23      14.26
C      -1.70      15.64       8.36
C      -1.55      18.37       9.19
C      -2.09      18.98      12.02
H      -1.54      14.10       6.89
H      -3.80      14.32      13.57
C      -2.27      13.58      10.17
H      -2.05      12.26       8.51
H      -2.13      20.27      13.73
H      -1.07      13.09      12.90
O      -3.54      12.14      14.91
H      -2.96      16.14      14.55
O      -2.75      21.03       7.16
O      -1.31      11.93      15.20
H      -3.31      19.57       9.21
C      -1.72      14.33       7.94
C      -2.87      14.21      13.01
H      -1.53      16.44       7.65
C      -2.34      12.35      14.54
C      -1.85      20.36       7.78
H      -0.59      18.24       8.68
O      -0.60      20.48       7.49
H      -2.77      18.47      15.32
C      -1.93      17.33      10.16
H      -1.82      19.78      11.34
C      -2.53      16.59      12.45
C      -2.00      13.29       8.86
C      -2.55      15.24      12.01
C      -2.28      19.26      13.36
H      -2.53      12.78      10.86
