36

Mg       3.36       0.89      10.07
Mg       4.19       6.66       3.63
Mg       6.66       3.36      13.29
Mg       0.89       4.19       6.85
H       3.07       0.71      12.78
H       4.48       6.85       6.34
H       6.85       3.07      16.00
H       0.71       4.48       9.56
C       2.05      -1.55      10.74
C       2.72      -1.17      12.07
C       4.37       5.42      13.79
C       5.50       9.10       4.30
C       4.83       8.73       5.62
C       3.18       2.13       7.35
C       9.10       2.05      13.96
C       8.73       2.72      15.29
C       2.13       4.37       4.13
C      -1.55       5.50       7.52
C      -1.17       4.83       8.85
C       5.42       3.18      10.57
O       2.20      -0.75       9.74
O       5.35       4.66      14.09
O       3.85       6.24      14.62
O       3.33       0.11      11.94
O       5.36       8.31       3.30
O       2.20       2.89       7.65
O       3.70       1.32       8.18
O       4.22       7.44       5.50
O       8.31       2.20      12.97
O       2.89       5.35       4.43
O       1.32       3.85       4.96
O       7.44       3.33      15.16
O      -0.75       5.36       6.52
O       4.66       2.20      10.87
O       6.24       3.70      11.40
O       0.11       4.22       8.72
