56

Ca       6.90       8.00       9.92
O       8.69       6.38       9.77
O       7.65       4.42       8.67
Ca       4.43      10.26      11.19
O       5.81       5.99      10.28
Ca       1.79       3.54       6.71
Ca       5.56       5.57       8.02
Ca       8.03       3.32       6.76
Ca      11.81       1.28       8.01
O       9.71       4.66       5.57
O      -0.40       4.53       6.45
O      10.35       2.81       6.98
Ca      13.10      12.30       9.93
Ca      10.67      10.04      11.24
O       0.52       1.87       5.97
O       8.97      11.43      12.31
O       6.65      11.27      11.37
O       8.37       9.52      10.97
O       5.72       8.63      11.96
O      11.03      11.09       9.30
O      10.02      13.08       8.24
O      12.86      12.69       7.67
C       6.18       8.23       6.60
C       1.11      10.69      13.40
C      12.43      11.54      13.21
C       5.14       3.88       4.58
C       6.26       4.75       4.76
C      12.53      14.98      11.33
C       6.28       5.35      11.34
C      11.35       2.88       4.55
C       0.03       2.04       4.74
C       7.32       9.69      13.37
C       6.20       8.83      13.19
C      12.39      12.04       6.62
S       3.94       8.68       8.09
S       1.59       9.76      12.01
S       4.63       3.01       5.99
S       2.30       1.98       9.82
S       8.52       4.89       9.85
S      10.87       3.81       5.93
S       7.82      10.57      11.95
S      10.16      11.60       8.13
O       4.81       9.16       9.28
O       3.77       7.20       8.18
O       6.65       7.59       7.67
O       2.75       8.92      12.38
O      12.86       9.05      11.50
O       2.11      10.76      10.97
O      11.94      11.70      11.98
O       3.49       2.14       5.64
O       5.81       2.31       6.57
O       4.09       4.06       6.98
O       6.73       4.94       5.99
O       1.43       2.49       8.65
O      14.90      13.93       9.71
O      12.06      14.33      10.27
