74

H       2.45      11.93       4.72
H       0.70      18.91      12.48
H       1.79       8.52       5.64
H       2.21       7.63       3.36
H       1.10      13.99       4.71
H       5.78       9.98      13.17
H       2.18       7.64      12.87
H       1.77       8.53      10.59
H       5.32      10.93      10.91
H      -1.70      14.90      10.82
H       5.33      10.93       5.33
H       1.07      13.98      11.51
H      -0.33      17.05       8.11
H       5.80       9.98       3.07
H       4.07       8.98       8.12
H       0.72      18.91       3.75
H       1.59      17.67       5.72
H       2.43      11.93      11.51
H      -2.57      16.14      12.83
H       1.56      17.67      10.49
H      -1.68      14.91       5.39
H      -2.54      16.15       3.38
C       1.42      13.59       8.11
C       4.15       8.24      14.55
C       0.15      16.07       8.11
C       0.42      15.46       6.89
C       3.55       9.93       8.12
C       4.03       8.70      13.14
C      -1.52      18.42      13.91
C       2.54      11.76       9.35
C       4.66      10.20       4.89
C       2.54      11.76       6.88
C       1.04      14.19       9.36
C      -1.00      17.63      12.75
C       2.15      12.39       5.65
C      -1.17      15.77      11.21
C       0.41      15.45       9.34
C       1.41      13.54       5.65
C       4.17       8.25       1.69
C       2.93       8.30       3.83
C      -0.00      16.17      10.57
C       4.64      10.20      11.34
C       4.95       9.63       3.65
C       3.51       9.83      10.62
C       0.02      16.17       5.65
C       1.05      14.19       6.87
C      -1.15      15.78       5.01
C       3.52       9.83       5.61
C       2.91       8.31      12.40
C       0.70      17.30      11.03
C       3.22      10.52       6.89
C       2.16      12.37       8.11
C       2.66       8.85       5.09
C      -0.98      17.64       3.47
C       4.05       8.70       3.09
C       2.64       8.85      11.14
C      -1.49      18.44       2.32
C       0.72      17.30       5.18
C      -1.70      16.49      12.29
C      -1.68      16.50       3.93
C       1.39      13.53      10.57
C       2.13      12.38      10.57
C       0.20      18.03       4.11
C       0.18      18.02      12.12
C       4.93       9.63      12.59
C       3.22      10.52       9.34
O       5.13       8.72       0.97
O      -0.82      19.40      14.35
O       3.27       7.49       1.22
O       5.10       8.71      15.27
O      -0.80      19.43       1.89
O      -2.65      18.06      14.39
O      -2.62      18.08       1.83
O       3.24       7.48      15.01
