36

Cd       6.88       9.68       0.00
Cd      12.48       9.68       0.00
N       8.01       7.08      -1.60
N       7.84       6.27      -2.64
Cd       9.68       6.88       0.00
Cd       9.68      12.48       0.00
N       8.01      12.28       1.60
N       7.84      13.09       2.64
N      11.35       7.08       1.60
N      11.53       6.27       2.64
N      11.35      12.28      -1.60
N      11.53      13.09      -2.64
N      12.28      11.35      -1.60
N      13.09      11.53      -2.64
N       7.08       8.01      -1.60
N       6.27       7.84      -2.64
N       7.08      11.35       1.60
N       6.27      11.53       2.64
N      12.28       8.01       1.60
N      13.09       7.84       2.64
N      11.35      12.28       1.60
N      11.53      13.09       2.64
N       8.01       7.08       1.60
N       7.84       6.27       2.64
N      11.35       7.08      -1.60
N      11.53       6.27      -2.64
N       8.01      12.28      -1.60
N       7.84      13.09      -2.64
N       7.08       8.01       1.60
N       6.27       7.84       2.64
N      12.28      11.35       1.60
N      13.09      11.53       2.64
N      12.28       8.01      -1.60
N      13.09       7.84      -2.64
N       7.08      11.35      -1.60
N       6.27      11.53      -2.64
