36

N       8.01      17.76      12.28
N       7.84      16.73      13.09
N      11.35      17.76       7.08
N      11.53      16.73       6.27
Cd       9.68      19.36       6.88
Cd       9.68      19.36      12.48
Cd       6.88      19.36       9.68
Cd      12.48      19.36       9.68
N       7.08      20.96      11.35
N       6.27      22.00      11.53
N      12.28      20.96       8.01
N      13.09      22.00       7.84
N      12.28      17.76      11.35
N      13.09      16.73      11.53
N       7.08      17.76       8.01
N       6.27      16.73       7.84
N      11.35      17.76      12.28
N      11.53      16.73      13.09
N       8.01      17.76       7.08
N       7.84      16.73       6.27
N      11.35      20.96       7.08
N      11.53      22.00       6.27
N       8.01      20.96      12.28
N       7.84      22.00      13.09
N      12.28      17.76       8.01
N      13.09      16.73       7.84
N       7.08      17.76      11.35
N       6.27      16.73      11.53
N       7.08      20.96       8.01
N       6.27      22.00       7.84
N      12.28      20.96      11.35
N      13.09      22.00      11.53
N       8.01      20.96       7.08
N       7.84      22.00       6.27
N      11.35      20.96      12.28
N      11.53      22.00      13.09
