31

C      11.30       1.07      12.65
H      12.07       0.64      11.99
C      12.35       2.43      14.68
C      13.90       4.21      13.66
H      11.39      -0.66      14.89
H      11.81       4.00      13.34
C      14.94       4.88      14.33
C      12.52       3.84      14.15
H      16.87       5.52      13.56
H      13.85       2.27      11.19
C      15.06       5.44      15.71
H      15.74       6.30      15.72
H      14.08       3.77      10.24
N      15.96       4.99      13.45
H      10.46       0.36      12.67
N      12.31       0.70      16.14
N      15.64       4.48      12.24
N      11.83       0.29      14.93
H      12.62       3.54      11.23
H      12.84       2.44      18.08
H      15.45       4.70      16.42
H      10.94       2.00      12.19
H      14.32       2.71      17.14
H      12.23       4.54      14.95
H      12.97       3.85      17.00
H      14.09       5.78      16.08
C      13.71       3.36      11.19
C      13.22       2.79      17.12
C      14.39       3.99      12.35
C      12.64       2.00      15.99
C      11.82       1.30      14.03
