31

C       6.05       5.22       0.32
C       4.70       6.15       3.66
H       5.64       2.68       1.36
C       5.23       5.92       2.28
C       6.63       4.43      -0.81
H       5.48       6.58       4.31
C       7.11       3.86       5.12
H       5.22       3.22       2.97
C       7.80       3.22       3.96
C       5.76       4.79       1.63
H       6.24       4.78      -1.77
H       6.03       3.68       5.08
C       5.93       3.38       2.15
H       4.35       5.22       4.12
H       3.87       6.86       3.64
C       8.35       2.34       1.98
C       7.31       3.00       2.65
N       5.72       6.52       0.17
N       5.24       6.93       1.37
H       6.38       3.37      -0.69
N       9.05       2.74       4.07
H       7.49       3.45       6.06
H       8.86       2.52      -0.11
N       9.37       2.23       2.86
H       7.26       4.95       5.12
H       7.73       4.51      -0.83
H       4.80       7.87       1.42
H       9.15       0.92       0.59
H      10.28       1.70       2.75
H       7.49       1.44       0.23
C       8.47       1.78       0.60
