31

C      11.98      11.21      12.11
H      13.40      11.06       7.46
H      15.91       7.58      11.79
H      10.92      11.91       8.04
H      14.98       6.56       9.58
H      12.51       9.49      13.28
C      12.47      11.43      10.81
C      15.07       8.28      11.81
H      12.28      12.99       8.39
H       9.50      12.73      10.91
H      14.56      11.21      11.13
C      12.66      10.57      13.27
C      13.72       9.22       8.47
C      13.14      10.00       7.35
H      14.14      11.75       9.51
H      12.05       9.93       7.33
H      14.30       7.86      12.47
N      14.06       7.92       8.33
H      15.42       9.21      12.27
H      13.74      10.76      13.23
N      14.54       7.51       9.53
N      10.40      12.21      11.01
N      10.72      11.69      12.22
H      12.28      10.98      14.22
H      13.53       9.66       6.38
H      10.62      13.52       8.74
C      14.01       9.64       9.79
C      13.84      11.05      10.31
C      11.30      12.66       8.76
C      14.55       8.52      10.43
C      11.43      12.09      10.13
