20

H       9.30      13.83       6.57
H       7.86      13.69       8.59
H      10.46      16.62      10.44
H      11.79      16.60       8.36
H       6.25      12.80      12.61
H       7.18      13.16      10.43
H       9.06      16.78      11.97
H       7.98      16.27      14.13
C       9.52      14.41       7.46
C       8.71      14.36       8.59
C       9.01      15.15       9.72
C      10.14      15.99       9.61
C      10.90      15.99       8.46
C       6.85      13.69      12.43
C       7.39      13.92      11.18
C       8.26      15.01      10.96
C       8.45      15.88      12.06
C       7.85      15.61      13.28
N      10.62      15.20       7.40
N       7.08      14.51      13.49
