20

H       7.18       5.22       4.84
H       8.47       5.19       2.75
H       4.84       3.91       0.73
H       3.70       4.04       2.93
H      10.68       4.17      -1.00
H       9.51       4.44       1.14
H       5.80       4.44      -1.10
H       7.11       4.23      -3.15
C       6.70       4.95       3.90
N       5.39       4.63       3.98
C       7.42       4.92       2.72
C       5.41       4.23       1.60
C       4.76       4.28       2.83
C       6.79       4.54       1.51
N       8.98       4.17      -2.19
C       9.60       4.25      -0.98
C       8.93       4.40       0.22
C       7.51       4.45       0.25
C       6.88       4.37      -1.02
C       7.61       4.25      -2.18
