32

C      11.91      10.65      10.70
C      12.84       9.63      11.40
C      10.03       8.25      14.08
C       9.07       7.06      14.03
C       8.39      10.08      14.18
C       8.42      11.58      14.48
O      12.43      12.57      13.28
O      12.62      14.41      12.01
O      12.67       9.42      12.65
O      13.69       9.10      10.64
O       7.92       7.24      13.50
O       9.48       5.97      14.51
O       9.33      12.31      14.02
O       7.45      11.97      15.23
H       8.37       8.97      11.80
H      10.12       8.70      11.63
H       8.76      11.45      11.71
H       9.29      10.64      10.23
H      11.02      13.12      10.39
H      10.01      13.20      11.85
H      12.56      11.43      10.29
H      11.44      10.15       9.85
H      10.97       7.96      13.59
H      10.27       8.43      15.13
H       7.46       9.88      13.61
H       8.27       9.56      15.14
N      10.86      11.30      11.54
N       9.58       9.53      13.48
C       9.36       9.40      12.00
C       9.50      10.75      11.31
C      10.93      12.78      11.43
C      12.08      13.30      12.29
