32

H       3.58      12.14      13.65
H       2.89      11.66      15.19
H       0.06      10.26      13.71
H       0.91      10.51      15.23
O       5.03       7.59      13.24
O       5.21       5.76      11.95
O       5.27      10.71      12.64
O       6.33      10.96      10.65
O       0.52      12.86      13.61
O       2.11      14.15      14.56
O       1.89       7.79      13.97
O       0.06       8.12      15.27
C       1.92      10.74      12.06
C       2.06       9.42      11.33
C       3.51       7.39      11.41
C       4.67       6.87      12.25
C       4.45       9.54      10.68
C       5.44      10.49      11.39
C       2.64      11.85      14.14
C       1.69      13.05      14.11
C       0.99      10.03      14.25
C       1.01       8.51      14.49
H       2.66      11.47      11.69
H       1.33       8.70      11.72
H       0.92      11.17      11.90
N       3.43       8.87      11.53
N       2.17      10.58      13.53
H       1.83       9.56      10.26
H       3.60       7.06      10.37
H       2.59       6.97      11.84
H       5.06       8.77      10.18
H       3.96      10.11       9.89
