20

C       4.96      10.32      16.03
H       2.71       9.27      22.70
C       4.17       9.91      18.30
H       5.49      11.92      19.65
H       5.42      12.35      22.08
C       4.98      10.62      17.39
C       3.43       8.85      17.75
C       3.46       8.59      16.39
H       2.65       8.71      20.33
C       3.33       9.82      22.00
C       3.31       9.52      20.64
C       4.12      10.23      19.73
C       4.87      11.29      20.28
C       4.84      11.54      21.64
N       4.12      10.80      22.51
H       5.58      10.88      15.33
H       5.63      11.44      17.70
H       2.80       8.22      18.38
H       2.89       7.77      15.96
N       4.18       9.33      15.52
