20

C       9.62       1.97       0.66
C      10.28       2.35      -0.66
O       9.72       4.59       3.25
O       7.95       3.56      -3.25
O      10.69       2.51       3.16
O       9.28       1.69      -3.16
C      10.34       3.63       2.57
C       8.48       2.55      -2.57
C       9.19       4.25      -0.67
C       8.51       3.85       0.67
C      10.56       3.76      -0.12
C       8.26       2.43       0.12
C       9.86       3.38       1.20
C       8.93       2.84      -1.20
H      11.55       4.17      -0.33
H       7.41       1.76       0.33
H       8.98       5.18      -1.22
H       7.80       4.49       1.22
H       9.82       1.02       1.21
H      11.00       1.71      -1.21
