26

C      11.93       7.51       2.73
H      12.23       6.27      -1.39
H      10.21       9.22       1.52
C      13.44       8.19       0.82
O      10.79       8.99      -3.18
C      13.46       8.51      -0.68
C      11.25       6.85       0.48
C      11.22       9.24       1.06
C      11.98       7.94       1.32
O      13.02       7.03       3.27
C      12.03       8.43      -1.27
O      10.74       7.24       3.14
C      11.50       7.01      -1.03
C      11.09       9.39      -0.47
O      13.06       9.20      -3.29
C      11.97       8.81      -2.71
H      11.78      10.07       1.52
H      11.28      10.42      -0.78
H      10.05       9.13      -0.74
H      10.15       6.93       0.65
H      10.55       6.84      -1.59
H      14.08       7.33       1.03
H      13.88       9.03       1.40
H      13.87       9.53      -0.83
H      14.14       7.81      -1.21
H      11.47       5.86       0.88
