11

Zn       9.39       4.10      17.28
C       7.41       3.74      15.45
C       8.74       6.03      19.08
C      12.15       5.27      17.74
C       9.77       1.15      16.80
O       8.88       4.75      19.10
N       9.68       2.13      17.73
C      11.63       4.92      15.52
O       8.60       4.25      15.44
C       9.82       1.77      19.03
N      11.25       4.86      16.82
