11

C      -1.50      13.20      16.80
Zn      -1.11      10.24      17.28
O      -0.60       9.60      19.10
C      -1.54      12.58      19.03
N      -1.41      12.22      17.73
C       0.86      10.61      15.45
C      -3.87       9.07      17.74
C      -0.47       8.31      19.08
N      -2.98       9.49      16.82
O      -0.32      10.09      15.44
C      -3.35       9.42      15.52
