34

H       0.15      12.60      12.97
H       0.04       7.80       7.61
H       0.16      13.26       8.59
H       0.02       7.13      11.98
H       0.23      11.50       4.72
H      -0.04       8.89      15.86
H       0.04      11.14      14.89
H       0.14       9.25       5.68
H       0.19      12.97      10.63
H      -0.01       7.42       9.95
C      -0.07       6.55      14.52
C       0.25      13.85       6.05
C      -0.01       7.89      13.95
C       0.19      12.51       6.62
C       0.04      10.28      14.23
C       0.15      10.11       6.35
C      -0.01       9.01      14.78
C       0.19      11.39       5.79
C       0.02       8.04      12.56
C       0.16      12.35       8.01
C       0.06       9.33      11.97
C       0.13      11.07       8.61
C       0.07      10.45      12.83
C       0.11       9.94       7.74
C       0.07       9.53      10.55
C       0.11      10.86      10.03
C       0.15      11.95      10.94
C       0.04       8.45       9.64
C       0.12      11.74      12.31
C       0.06       8.66       8.27
O       1.05       5.92      14.70
O      -0.86      14.47       5.88
O      -1.24       6.06      14.77
O       1.42      14.33       5.80
