20

H       5.91       7.41      19.29
H       8.02       3.79      21.86
H       4.69       5.97      21.41
H       9.24       5.23      19.74
H       5.65       3.55      20.31
H       8.28       7.65      20.84
C       6.84       4.88      17.84
C       7.08       6.32      23.31
C       5.72       5.80      21.03
C       8.21       5.40      20.12
C       6.38       6.59      19.88
C       7.54       4.61      21.27
C       6.91       5.27      19.29
C       7.01       5.93      21.85
C       6.24       4.47      20.43
C       7.68       6.72      20.72
O       7.96       4.66      17.23
O       5.97       6.54      23.92
O       5.67       4.80      17.29
O       8.25       6.40      23.86
