17

Tb       2.91       0.25       1.12
O       2.61      -0.33      -1.21
O       2.35       1.73       2.91
O       0.96       1.45       0.27
C       4.93      -2.58       0.41
O       5.02       0.70       2.05
C      -0.00      -0.73       0.20
O       0.93      -1.16       0.94
C       2.50       1.28       4.09
O       2.64      -0.95       3.20
O       3.67       2.28       0.13
O       4.02      -1.78       0.79
C       6.28       0.87       2.02
C       2.51      -0.26       4.25
C       0.01       0.75      -0.19
C       4.78       2.58      -0.41
C       3.43      -0.87      -2.02
