20

N       8.70      16.40       1.26
N       1.55      16.33       1.38
H       6.10      15.08      -0.42
H       8.59      15.14      -0.36
H       8.61      17.67       2.89
H       6.14      17.70       3.03
H       4.12      14.75      -0.10
H       1.65      14.80       0.00
H       1.66      17.84       2.79
C       5.87      16.39       1.30
H       4.13      17.97       2.79
C       6.60      15.67       0.35
C       7.99      15.69       0.36
C       8.01      17.11       2.18
C       6.62      17.12       2.24
C       4.38      16.37       1.33
C       3.64      15.47       0.55
C       2.25      15.48       0.60
C       2.25      17.18       2.15
C       3.64      17.24       2.15
