26

C      -0.61      -1.66      32.33
H      -0.41      -5.53      29.19
H       0.02      -7.98      29.23
H       0.53      -3.53      29.14
C      -0.40      -0.94      31.14
C       0.60      -8.01      31.29
H       0.18      -1.07      29.08
C       0.18      -7.37      30.11
C      -0.44      -3.04      32.36
O      -0.69       1.13      32.24
O       0.94     -10.06      32.44
O       0.87     -10.07      30.16
C       0.82      -9.50      31.30
O      -0.56       1.12      29.97
C       0.80      -7.24      32.44
C      -0.57       0.55      31.12
C       0.00      -1.63      29.99
C      -0.05      -6.00      30.09
C      -0.03      -3.75      31.21
C       0.60      -5.86      32.42
H      -0.91      -1.11      33.22
C       0.19      -3.01      30.03
H       1.12      -7.74      33.35
H       0.80      -5.27      33.31
C       0.17      -5.21      31.24
H      -0.65      -3.59      33.28
