26

C       2.42       7.76      39.99
C       0.30       7.38      41.12
C      -5.50       7.62      41.14
C      -1.92       7.10      39.98
H      -3.89       6.88      39.11
H       2.96       6.60      43.13
C      -3.31       7.16      39.98
O       5.21       7.61      40.04
O       5.19       7.27      42.29
O      -6.08       7.46      40.02
O      -6.07       7.81      42.27
C       1.01       6.94      42.25
C       4.63       7.41      41.16
H       0.50       8.14      39.11
H       0.46       6.59      43.12
H       2.99       8.09      39.12
H      -1.40       6.74      39.09
C      -1.88       7.87      42.27
H      -1.31       8.18      43.15
H      -3.81       8.27      43.16
C       3.13       7.35      41.13
C      -4.00       7.58      41.13
C       1.03       7.78      39.98
C       2.40       6.93      42.26
C      -3.27       7.94      42.27
C      -1.18       7.45      41.12
