26

C       6.25       3.19      31.28
H      10.38       2.59      33.38
C       5.52       3.40      32.47
C       9.83       2.82      32.47
C       8.47       3.45      30.12
H      10.43       3.62      29.22
H       6.06       2.81      29.16
H       3.56       3.57      33.37
C       8.44       2.84      32.46
C       7.73       3.16      31.29
H       6.04       3.55      33.40
O      12.64       3.03      30.17
C       1.92       3.26      31.24
O      12.62       3.09      32.45
O       1.33       3.23      32.37
C       4.12       3.42      32.45
O       1.36       3.29      30.09
C       5.53       3.01      30.08
C       9.86       3.40      30.12
C      12.05       3.07      31.30
C       3.42       3.25      31.26
H       7.95       3.75      29.22
C      10.56       3.09      31.30
C       4.14       3.05      30.07
H       3.58       2.91      29.15
H       7.90       2.59      33.37
