14

O      11.83       1.47      29.31
O      10.79       2.68      30.94
C      10.92       1.65      30.19
Cu      12.03       4.19      30.68
Cu      13.16       2.89      28.96
C      14.17       2.62      31.62
O      13.38       5.59      30.33
O      14.49       4.34      28.77
O      11.98       3.75      27.62
O      13.26       3.43      32.02
C      14.37       5.35      29.55
C      11.07       4.55      28.04
O      10.87       4.89      29.26
O      14.29       2.16      30.42
