14

O      14.30       9.02       9.13
O      15.29       7.82      10.79
Cu      12.93       7.62       8.83
Cu      14.08       6.30      10.53
O      11.60       6.17       8.68
O      14.13       6.73       7.52
O      12.82       7.06      11.82
C      15.19       8.85      10.03
C      11.74       5.14       9.43
C      15.05       5.93       7.92
O      12.75       4.88      10.17
O      15.27       5.59       9.14
O      11.80       8.39      10.26
C      11.92       7.90      11.44
