66

O       1.43       5.92       5.91
O       1.42       7.24       7.77
O      13.08      23.41       1.91
O      11.91      21.45       1.91
C      12.44      23.87       4.57
C      11.25      21.78       6.04
C      10.64      20.73       6.77
C      10.08      19.84       7.40
C       9.42      18.87       8.08
C       8.80      18.01       8.69
C       8.00      17.06       9.37
C       3.15       7.64       4.60
C       4.30       9.76       6.05
C       4.88      10.83       6.78
C       5.35      11.77       7.41
C       5.85      12.83       8.09
C       6.29      13.80       8.69
C       6.74      14.96       9.37
C       1.98      16.25      19.93
C       2.97      17.17      19.30
C       3.50      16.86      18.04
H       3.24      15.92      17.57
H      11.33      23.15       7.71
H       5.32      10.23       4.19
H       5.31      19.72      17.53
C      12.15      24.04       5.93
C      11.56      23.00       6.66
C       4.32       8.35       2.52
C       4.04       8.52       3.98
C       4.63       9.57       4.69
H       3.09       9.05       7.71
H      11.28      20.69       4.15
C      12.43      25.36       6.58
C       6.31      15.22      10.68
C       7.57      17.31      10.69
C       7.60      15.87       8.72
C       4.67      19.00      18.03
C       4.15      19.29      19.29
C       4.46      20.60      19.95
C       1.81       6.93       6.59
C       2.81       7.84       5.95
C       3.37       8.89       6.67
H       2.88      18.61      20.91
C      12.12      22.66       3.94
C      11.53      21.62       4.66
H      12.91      24.67       4.01
H       2.71       6.82       4.04
C      12.40      22.49       2.48
O       1.58      16.55      21.11
C       3.30      18.38      19.93
C       4.36      17.77      17.39
C       4.89      17.47      16.12
C       5.34      17.21      15.00
C       5.82      16.93      13.78
C       6.25      16.68      12.65
C       6.72      16.40      11.35
O       1.60      15.24      19.24
H       5.64      14.52      11.18
O      13.12      26.20       5.91
O      11.94      25.55       7.75
O       3.86       7.30       1.96
O       4.99       9.28       1.94
H       7.88      18.22      11.19
H       7.93      15.68       7.70
O       4.06      20.76      21.15
O       5.09      21.46      19.24
