66

C      15.91      43.66      21.99
C      14.95      42.72      22.64
C      14.52      32.13       8.71
C      13.42      32.73      11.24
C      12.86      33.02      12.50
C      12.37      33.26      13.60
O      16.27      33.93       7.56
O      16.26      35.24       9.44
C      11.86      33.53      14.82
C      11.43      33.77      15.94
C      11.01      34.07      17.26
C       6.18      28.90      23.95
H      12.39      30.83      11.04
C       5.49      27.89      24.64
O       4.49      24.38      22.63
O       5.74      25.01      20.83
H       6.44      29.81      24.48
O      13.89      43.19      26.64
H      14.70      41.53      20.87
O      12.79      41.19      26.64
C      10.25      33.15      18.00
C      11.41      35.29      17.86
C      10.30      34.64      19.93
C      14.61      42.89      23.99
C      13.52      40.75      22.52
C      12.96      39.69      21.77
C      12.48      38.77      21.11
C      11.98      37.72      20.42
H      14.63      34.53      11.13
C      11.54      36.74      19.82
C      11.07      35.56      19.20
C       5.15      26.70      23.99
C       6.53      28.73      22.60
C       7.23      29.75      21.91
C       7.84      30.64      21.32
C       8.52      31.60      20.67
C       9.14      32.47      20.07
C       9.89      33.43      19.33
H       6.48      27.35      20.92
H      14.93      31.90       7.74
O      13.71      29.77       7.46
O      12.58      29.11       9.34
H      12.54      40.21      24.38
H      15.03      43.72      24.56
H       4.62      25.91      24.52
C      14.41      41.66      21.91
C       5.18      28.05      26.09
O      16.28      44.68      22.67
O      16.31      43.36      20.81
O       4.49      27.13      26.65
O       5.66      29.09      26.66
C      13.75      41.98      24.62
H       9.95      32.20      17.55
C      15.88      34.23       8.74
C      14.88      33.31       9.37
C      14.34      33.61      10.63
H      10.04      34.85      20.96
H      11.99      36.00      17.28
C      13.27      29.94       8.65
C      13.62      31.24       9.32
C       5.22      25.21      21.98
C       5.51      26.51      22.65
C       6.20      27.52      21.95
C      13.45      42.13      26.07
C      13.08      31.53      10.57
C      13.20      40.91      23.89
