66

O      10.57      27.99       7.74
O      -9.19      29.91       1.94
O      -6.91      29.90       1.94
O      -2.28      23.27      21.07
O      -3.40      23.84      19.16
C      -9.28      29.15       4.60
C      -6.86      28.98       6.03
C      -5.65      28.90       6.76
C      -4.61      28.83       7.41
C      -3.45      28.75       8.11
C      -2.40      28.67       8.74
C      -1.16      28.56       9.41
C       8.16      29.92       2.46
C       8.17      29.60       3.92
C       6.97      29.63       4.65
H       6.05      29.90       4.15
H       2.35      24.95      17.52
C       1.40      24.73      18.00
C       1.38      24.07      19.23
C       2.67      23.67      19.88
H      -8.11      28.41       7.71
H       8.19      28.61       7.68
H      -5.92      29.53       4.15
C     -10.57      28.40       6.61
C      -9.28      28.78       5.95
C      -8.09      28.70       6.67
H      -1.98      25.02      17.52
C       0.04      28.89       8.73
C       1.33      28.28      10.71
C      -1.10      28.09      10.73
C      10.65      28.46       6.55
C       9.37      28.89       5.90
C       8.18      28.90       6.63
C      -8.05      29.77       2.51
C      -8.06      29.42       3.96
C      -6.85      29.33       4.67
H      10.29      29.23       3.98
H       0.15      23.24      20.81
C       0.21      26.92      13.82
H     -10.21      29.22       4.05
C      -2.34      23.71      19.87
C      -1.04      24.10      19.23
C      -1.04      24.76      18.00
C       1.28      28.75       9.38
O       9.30      30.04       1.89
O       7.02      30.02       1.89
O       2.59      23.10      21.03
O       3.74      23.91      19.23
C       0.20      25.77      16.13
H      -0.00      29.25       7.71
H       2.29      28.17      11.20
C       9.37      29.25       4.54
C       6.97      29.28       6.02
O     -10.50      27.92       7.79
C       5.76      29.29       6.75
C       3.55      29.15       8.07
C       4.70      29.25       7.38
O     -11.64      28.57       5.92
C       0.16      23.76      19.85
C       0.19      25.10      17.37
H      -2.01      27.82      11.26
C       0.22      26.34      15.04
O      11.72      28.59       5.85
C       0.20      27.42      12.70
C       0.15      27.94      11.39
C       2.49      29.01       8.68
