66

C       6.80       6.78       0.37
C       8.08       6.03       0.55
C       9.27       6.73       0.79
C      26.75       4.71       0.42
C      24.32       6.09       0.73
C      23.10       6.78       0.89
C      22.04       7.39       1.02
C      20.88       8.07       1.15
C      19.82       8.70       1.25
C      18.61       9.41       1.33
C      10.50       4.63       0.81
O      26.70       1.95       0.22
O      24.41       1.93       0.24
H      25.55       7.88       0.75
C      15.02      20.99       0.43
C      16.31      20.25       0.59
O      19.95      22.26       0.33
C      16.31      18.87       0.77
H      11.43       4.08       0.89
O      21.10      20.29       0.41
H      15.36      18.34       0.82
O       5.73       6.08       0.27
O       6.88       8.06       0.32
C       9.33       2.45       0.42
C       8.09       4.63       0.46
C      10.49       6.04       0.92
C      11.69       6.75       1.12
C      12.74       7.38       1.26
C      13.89       8.07       1.36
C      18.60      10.82       1.31
C      16.16       9.42       1.41
C      14.94       8.71       1.42
C       9.31       3.93       0.58
C      17.38       8.71       1.38
C      16.17      10.83       1.40
H      23.40       4.12       0.63
H      19.69      18.34       0.84
H       9.24       7.81       0.86
O      29.11       6.16       0.33
O      27.98       8.14       0.41
H      27.69       4.17       0.30
H       7.17       4.08       0.27
O       8.20       1.86       0.33
O      10.48       1.88       0.38
H      17.53      22.03       0.37
C      17.52      20.95       0.51
C      17.52      18.15       0.87
C      17.51      16.75       1.04
C      17.46      15.52       1.15
C      17.42      14.18       1.24
C      17.40      12.95       1.30
C      17.39      11.54       1.35
O      15.09      22.26       0.33
O      13.95      20.28       0.38
H      19.54      11.36       1.26
C      25.55       2.52       0.30
C      25.55       4.00       0.46
C      24.33       4.68       0.61
H      17.37       7.63       1.39
H      15.23      11.37       1.42
C      20.02      20.99       0.44
C      18.73      20.25       0.59
C      18.74      18.86       0.78
C      28.04       6.86       0.42
C      26.75       6.11       0.52
C      25.54       6.79       0.68
