66

C       0.13      32.32      27.74
C       0.16      33.72      27.55
C       0.21      34.95      27.43
C       0.24      36.29      27.31
C       0.27      37.51      27.24
C       0.27      38.93      27.17
O       9.47      48.57      28.26
O       7.19      48.56      28.21
O       2.53      28.21      28.34
O       3.68      30.18      28.29
C      -7.87      47.93      28.16
C      -7.88      46.45      27.99
C      -6.68      45.75      27.78
H      -5.74      46.30      27.70
H      -2.03      32.17      27.78
C       7.15      44.42      27.59
C      -2.39      29.52      28.23
C      -1.10      30.25      28.06
C      -1.09      31.63      27.85
C       2.69      41.77      27.11
C       1.47      41.05      27.11
H      -7.94      42.57      27.71
C       3.74      42.41      27.16
C       4.89      43.10      27.26
C       5.94      43.72      27.39
H       8.39      42.64      27.62
H       6.22      46.38      27.67
H       2.30      32.11      27.79
C       0.24      41.74      27.09
C      10.84      43.66      28.11
C       9.57      44.41      27.93
C       8.37      43.72      27.70
C     -10.40      43.63      28.17
C      -9.11      44.36      27.99
C      -7.92      43.66      27.78
C      -0.96      39.63      27.16
C       1.48      39.64      27.15
C       8.34      47.99      28.15
C       8.35      46.51      27.96
C       7.15      45.83      27.72
H     -10.01      46.31      28.26
H       0.08      28.46      28.33
C       9.56      45.81      28.05
C      -9.09      45.76      28.09
C      -6.69      44.35      27.66
C      -5.49      43.64      27.47
C      -4.43      43.02      27.33
C      -3.26      42.35      27.21
C      -2.20      41.74      27.15
C      -0.97      41.04      27.12
C       1.34      31.60      27.86
C       1.32      30.22      28.07
O      -9.01      48.50      28.25
O      -6.73      48.52      28.23
H      10.49      46.34      28.23
C       2.61      29.48      28.24
O      10.77      42.39      28.17
O      -2.32      28.25      28.34
O      -3.46      30.22      28.27
H       0.24      42.83      27.06
H      -1.89      39.08      27.19
O      11.91      44.36      28.22
H       2.42      39.11      27.17
O     -11.46      44.34      28.29
O     -10.34      42.35      28.20
C       0.10      29.54      28.16
