504

Si       3.91       3.89       4.59
Si      19.84       3.91      23.34
Si       3.93      19.78      23.33
Si      19.83      19.87       4.59
Si      27.82      11.86      13.93
Si      27.85      27.76      32.66
Si      11.88      11.87      32.72
Si      11.86      27.83      13.98
H       0.01       4.73       7.20
H       1.36       3.41       5.76
H       2.96       7.76       7.21
H       4.30       6.47       5.74
H       6.08       4.55       6.28
H       7.22       3.33       7.97
H       4.65       0.04       7.35
H       3.47       1.26       5.70
H       4.48       1.40       3.30
H       3.25       0.11       1.72
H       0.30       3.12       1.55
H       1.48       4.39       3.17
H       3.40       6.15       2.97
H       6.68       3.60       3.82
H       8.06       4.91       2.40
H       4.78       7.42       1.52
H      24.00       2.65      25.38
H      22.69       3.91      23.89
H      20.52       0.73      26.82
H      19.20       1.98      25.31
H      16.97       3.99      23.78
H      15.64       5.31      25.21
H      19.12       7.11      26.79
H      20.46       5.82      25.33
H      19.90       6.77      22.80
H      21.15       8.04      21.23
H      23.01       4.51      19.83
H      21.77       3.23      21.41
H      19.70       1.05      22.86
H      18.02       4.62      21.31
H      16.82       3.35      19.71
H      18.43      31.66      21.30
H       8.13      20.97      21.32
H       6.79      19.74      22.82
H       4.69      22.94      19.85
H       3.34      21.72      21.36
H       1.21      19.99      22.39
H       0.01      18.75      20.78
H       3.38      16.28      20.14
H       4.62      17.57      21.70
H       3.84      17.00      24.13
H       5.03      15.81      25.79
H       7.00      19.36      26.95
H       5.84      20.56      25.25
H       3.87      22.64      23.86
H       1.86      19.12      25.11
H       0.59      20.40      26.65
H       2.55      23.91      25.36
H      16.52      19.17       1.25
H      17.73      20.48       2.82
H      18.64      15.73       2.47
H      19.90      17.04       4.00
H      21.84      19.09       2.77
H      23.04      20.28       1.09
H      20.93      23.80       2.06
H      19.69      22.63       3.70
H      20.45      22.15       6.16
H      19.17      23.44       7.68
H      15.87      20.87       7.10
H      17.11      19.62       5.52
H      19.21      17.91       6.52
H      22.66      19.99       5.21
H      23.98      18.74       6.72
H      20.53      16.69       8.05
H      29.12       7.77      11.76
H      27.89       9.01      13.36
H      30.85      11.33      10.29
H      29.67      12.59      11.92
H      27.79      14.73      13.45
H      26.56      16.05      11.92
H      24.66      12.59      10.43
H      25.87      11.25      11.98
H      24.97      11.84      14.48
H      23.67      10.56      15.97
H      27.17       8.63      17.35
H      28.47       9.90      15.84
H      30.69      11.98      14.35
H      27.17      13.68      15.98
H      28.50      14.93      17.50
H       0.13      13.27      15.83
H      26.67       0.05      30.56
H      27.92      30.61      32.09
H      24.64      28.47      29.21
H      25.86      27.15      30.76
H      27.63      25.01      31.80
H      28.89      23.75      30.24
H      31.27      27.14      29.41
H      29.98      28.43      30.94
H      30.67      27.64      33.35
H       0.10      28.94      34.81
H      28.52      31.00      36.10
H      27.20      29.73      34.59
H      25.01      27.82      33.27
H      28.46      25.67      34.45
H      27.12      24.33      35.88
H      23.68      26.47      34.67
H      12.74      15.59      35.58
H      11.42      14.35      34.05
H      15.81      12.70      35.30
H      14.48      11.42      33.80
H      12.35       9.25      33.80
H      11.16       7.98      35.42
H       8.51      11.20      36.03
H       9.64      12.46      34.37
H       9.16      11.56      31.84
H       7.80      12.91      30.44
H      11.02      15.57      29.85
H      12.38      14.25      31.27
H      14.28      12.43      31.27
H      11.31       9.40      31.40
H      12.52       8.16      29.78
H      15.44      11.20      29.61
H      10.77      23.63      16.06
H      11.96      24.98      14.50
H       8.79      27.05      17.53
H       9.95      28.41      15.97
H      11.71      30.61      14.79
H      13.02      31.87      16.30
H      15.34      28.45      17.18
H      14.00      27.16      15.70
H      14.69      27.89      13.28
H      15.95      26.59      11.78
H      12.43      24.67      10.46
H      11.15      25.93      12.02
H       9.00      27.82      13.50
H      12.44      29.88      12.13
H      11.08      31.18      10.70
H       7.64      29.15      12.10
H      31.01       0.71       1.79
H       3.27       1.22      36.77
H       2.59       0.80      35.20
H       3.32      31.41      36.21
H      24.82       6.74      20.34
H      20.31       7.19      18.65
H      20.78       7.54      16.99
H      20.50       8.87      18.12
H       8.76      17.23      26.63
H       4.25      16.64      28.30
H       4.73      16.18      29.94
H       4.46      14.93      28.71
H      15.00      23.36       7.13
H      18.78      22.07       9.89
H      18.02      22.45      11.43
H      18.99      23.68      10.60
H       7.06      24.80      16.92
H      11.55      24.39      18.68
H      11.05      24.05      20.34
H      11.37      22.71      19.22
H      22.88      14.81      11.01
H      27.38      15.29       9.31
H      26.90      15.67       7.66
H      27.20      16.98       8.82
H      16.61       8.76      29.84
H      12.47       9.32      27.37
H      13.16       8.95      25.80
H      12.44       7.66      26.77
H      31.11      16.21      20.72
H       2.94      17.68      17.95
H       2.16      17.36      16.42
H       3.16      16.10      17.17
H      24.72      22.52       1.44
H      20.28      22.82      36.98
H      20.82      23.21      35.35
H      20.43      24.51      36.49
H       8.62       0.95       7.64
H       4.32       1.11       9.85
H       4.93       0.78      11.46
H       4.38      31.32      10.43
H       7.15       8.88      35.71
H      11.47       8.95       0.44
H      10.86       8.55       2.04
H      11.41       7.26       0.96
H      22.92      30.74      29.79
H      27.38      31.08      27.95
H      26.86      31.42      26.30
H      27.21       0.88      27.40
H      14.87       1.50      20.02
H      19.39       0.22      18.83
H      18.99      31.49      17.22
H      19.02      30.38      18.60
H      30.68      22.41      26.36
H       3.34      23.26      27.84
H       2.90      23.80      29.45
H       3.09      24.99      28.15
H       0.86       9.33      10.64
H      28.18       8.38       9.26
H      28.59       7.88       7.63
H      28.47       6.67       8.92
H      14.84      16.99       1.62
H      19.37      16.52      37.42
H      18.90      16.11      35.77
H      19.20      14.82      36.96
C       6.56       6.30       1.83
C       7.08       5.19       2.53
C       6.26       4.42       3.38
C       4.91       4.78       3.60
C       4.38       5.87       2.87
C       5.19       6.62       2.00
C       3.06       2.98       3.48
C       1.86       3.48       2.90
C       1.17       2.74       1.93
C       1.65       1.49       1.49
C       2.88       1.02       2.02
C       3.59       1.77       2.97
C       4.72       3.00       5.74
C       2.93       4.84       5.53
C       1.70       4.35       6.02
C       0.90       5.12       6.87
C       1.34       6.39       7.32
C       2.60       6.85       6.89
C       3.39       6.09       6.01
C       5.77       3.60       6.48
C       6.44       2.88       7.48
C       6.05       1.57       7.82
C       4.96       0.99       7.14
C       4.28       1.71       6.13
C      17.51       1.45      20.35
C      17.41       2.86      20.38
C      18.12       3.60      21.33
C      18.96       2.97      22.29
C      19.07       1.56      22.23
C      18.34       0.81      21.29
C      20.74       4.87      22.31
C      21.64       4.24      21.40
C      22.37       4.99      20.47
C      22.20       6.39      20.39
C      21.30       7.02      21.28
C      20.57       6.27      22.21
C      18.86       4.80      24.35
C      20.80       3.03      24.38
C      22.20       3.22      24.46
C      22.99       2.48      25.36
C      22.40       1.54      26.24
C      20.99       1.39      26.20
C      20.21       2.13      25.30
C      17.45       4.66      24.38
C      16.66       5.44      25.24
C      17.25       6.36      26.14
C      18.66       6.46      26.16
C      19.45       5.69      25.29
C       1.45      22.28      26.16
C       1.26      20.88      26.04
C       2.01      20.13      25.13
C       2.97      20.75      24.29
C       3.16      22.15      24.40
C       2.39      22.90      25.31
C       4.77      18.89      24.46
C       5.66      19.56      25.34
C       6.34      18.85      26.34
C       6.12      17.47      26.53
C       5.21      16.81      25.68
C       4.52      17.52      24.68
C       3.03      18.87      22.27
C       4.93      20.64      22.30
C       6.32      20.43      22.23
C       7.12      21.16      21.33
C       6.55      22.10      20.44
C       5.15      22.27      20.48
C       4.35      21.55      21.38
C       1.69      19.20      21.95
C       0.97      18.47      20.99
C       1.58      17.39      20.30
C       2.92      17.07      20.60
C       3.64      17.82      21.54
C      22.40      17.57       7.53
C      22.98      18.54       6.68
C      22.19      19.27       5.77
C      20.80      19.03       5.65
C      20.21      18.10       6.54
C      21.00      17.38       7.45
C      18.89      20.80       5.61
C      17.56      20.44       5.93
C      16.83      21.17       6.88
C      17.40      22.28       7.54
C      18.73      22.63       7.23
C      19.48      21.88       6.32
C      20.69      20.75       3.47
C      18.91      18.89       3.61
C      17.93      19.48       2.78
C      17.21      18.71       1.85
C      17.47      17.33       1.72
C      18.44      16.73       2.55
C      19.16      17.50       3.47
C      21.64      20.09       2.65
C      22.35      20.78       1.65
C      22.10      22.15       1.42
C      21.13      22.81       2.20
C      20.42      22.12       3.20
C      30.38      14.23      16.80
C      28.97      14.31      16.84
C      28.19      13.58      15.93
C      28.79      12.73      14.96
C      30.20      12.61      14.97
C      30.98      13.37      15.86
C      26.86      10.96      14.95
C      27.46      10.04      15.84
C      26.69       9.29      16.75
C      25.28       9.44      16.80
C      24.68      10.39      15.94
C      25.45      11.14      15.04
C      26.92      12.85      12.92
C      28.69      10.93      12.85
C      28.53       9.53      12.75
C      29.24       8.79      11.79
C      30.09       9.43      10.87
C      30.24      10.83      10.95
C      29.54      11.57      11.92
C      27.12      14.25      12.85
C      26.40      15.04      11.93
C      25.50      14.44      11.03
C      25.31      13.05      11.08
C      26.02      12.26      12.00
C      25.26      25.25      35.40
C      26.66      25.06      35.33
C      27.45      25.85      34.48
C      26.87      26.85      33.65
C      25.48      27.07      33.78
C      24.69      26.27      34.62
C      28.80      28.60      33.74
C      28.20      29.54      34.62
C      28.98      30.29      35.52
C      30.38      30.12      35.58
C      30.97      29.13      34.77
C      30.19      28.37      33.88
C      28.73      26.83      31.60
C      26.98      28.74      31.63
C      27.21      30.14      31.52
C      26.49      30.92      30.60
C      25.54      30.32      29.75
C      25.32      28.93      29.83
C      26.05      28.15      30.74
C      28.41      25.48      31.33
C      29.13      24.73      30.39
C      30.22      25.32      29.70
C      30.52      26.68      29.92
C      29.75      27.43      30.83
C      14.10       9.56      29.54
C      12.90       9.06      30.09
C      12.19       9.79      31.06
C      12.72      10.99      31.59
C      13.89      11.52      30.99
C      14.58      10.80      30.00
C      10.89      12.81      31.77
C      11.41      13.96      31.12
C      10.61      14.73      30.27
C       9.26      14.39      30.03
C       8.75      13.22      30.63
C       9.56      12.42      31.46
C      11.06      10.95      33.84
C      12.85      12.79      33.70
C      12.36      13.99      34.28
C      13.13      14.72      35.20
C      14.42      14.28      35.57
C      14.90      13.07      35.02
C      14.11      12.32      34.13
C      11.52       9.67      34.23
C      10.84       8.92      35.21
C       9.72       9.47      35.88
C       9.31      10.77      35.55
C       9.98      11.51      34.56
C       9.22      30.32      11.27
C      10.62      30.48      11.29
C      11.43      29.71      12.15
C      10.86      28.74      13.01
C       9.46      28.55      12.95
C       8.65      29.33      12.11
C      12.79      26.99      12.88
C      12.16      26.09      11.98
C      12.92      25.35      11.05
C      14.32      25.49      10.99
C      14.94      26.43      11.83
C      14.19      27.19      12.74
C      12.77      28.76      15.02
C      11.04      26.83      15.02
C      11.28      25.44      15.11
C      10.59      24.64      16.04
C       9.67      25.22      16.94
C       9.45      26.61      16.89
C      10.13      27.40      15.96
C      12.49      30.13      15.26
C      13.24      30.88      16.18
C      14.32      30.29      16.87
C      14.58      28.91      16.67
C      13.79      28.16      15.79
C       1.40       0.16      36.82
C       0.89       0.70       0.59
C      31.43       0.37       0.93
C      31.18      30.92      36.43
C       2.72       0.45      36.23
C      22.34       7.87      18.38
C      22.93       7.15      19.45
C      24.33       7.23      19.58
C      24.49       8.67      17.70
C      20.90       7.86      18.03
C       6.29      15.97      28.53
C       6.87      16.74      27.49
C       8.27      16.71      27.37
C       8.46      15.18      29.18
C       4.85      15.93      28.88
C      17.07      23.38       9.78
C      16.63      23.04       8.47
C      15.38      23.55       8.06
C      15.09      24.68      10.12
C      18.29      22.87      10.45
C       9.52      23.69      18.92
C       8.94      24.41      17.84
C       7.54      24.31      17.68
C       7.36      22.86      19.55
C      10.95      23.72      19.30
C      25.35      15.98       9.06
C      24.76      15.23      10.12
C      23.36      15.31      10.26
C      23.20      16.80       8.42
C      26.79      15.98       8.70
C      14.36       8.27      27.40
C      14.86       8.78      28.62
C      16.19       8.44      28.96
C      16.44       7.16      26.98
C      13.03       8.57      26.81
C       1.25      16.34      18.04
C       0.83      16.62      19.37
C      31.47      16.06      19.78
C      31.17      15.02      17.68
C       2.45      16.90      17.36
C      22.30      23.57      36.82
C      22.86      22.87       0.47
C      24.25      22.99       0.66
C      24.46      24.44      36.24
C      20.88      23.52      36.39
C       6.27       0.22       9.93
C       6.81       0.81       8.75
C       8.18       0.57       8.47
C       8.40      31.11      10.42
C       4.90       0.40      10.43
C       9.51       8.05       0.50
C       8.97       8.68      36.79
C       7.60       8.47      36.53
C       7.38       7.08       0.98
C      10.89       8.22       1.01
C      25.36      31.80      27.74
C      24.79      31.11      28.84
C      23.39      31.22      29.02
C      23.20       0.77      27.13
C      26.79      31.76      27.33
C      17.32      31.62      18.51
C      16.75       0.69      19.42
C      15.35       0.84      19.40
C      15.13      31.05      17.73
C      18.76      31.39      18.29
C       1.29      23.88      28.08
C       0.71      23.04      27.09
C      31.17      22.99      27.05
C      31.00      24.56      28.81
C       2.74      23.98      28.39
C      30.24       7.83       8.95
C      30.83       8.68       9.92
C       0.37       8.74       9.96
C       0.54       7.16       8.20
C      28.79       7.69       8.68
C      17.35      15.81      37.17
C      16.74      16.55       0.78
C      15.34      16.49       0.89
C      15.20      15.03      36.48
C      18.79      15.82      36.82
N      30.69      31.45       0.12
N       0.59      31.24      36.08
N      25.06       7.97      18.72
N      23.14       8.59      17.56
N       9.01      15.94      28.20
N       7.11      15.22      29.32
N      14.65      24.34       8.89
N      16.29      24.19      10.54
N       6.81      23.55      18.52
N       8.71      22.95      19.72
N      22.63      16.08       9.42
N      24.54      16.72       8.27
N      16.93       7.66      28.15
N      15.17       7.49      26.64
N      30.75      15.30      18.93
N       0.47      15.55      17.26
N      25.00      23.75      37.29
N      23.12      24.32      36.04
N       8.92      31.68       9.30
N       7.09      31.33      10.70
N       6.85       7.69      37.34
N       8.69       7.28       1.26
N      22.65       0.09      28.17
N      24.54       0.66      26.94
N      14.58       0.10      18.56
N      16.48      30.90      17.72
N      30.42      23.73      27.90
N       0.48      24.61      28.88
N       1.11       7.99       9.11
N      31.06       7.10       8.14
N      14.62      15.74       0.02
N      16.55      15.08      36.35
