41

Cd      -1.88       5.08       0.00
Cd      -3.00       2.70       5.74
Cd      -1.10       2.28       2.52
Cd      -0.75       7.47      -5.74
Cd      -2.65       7.88      -2.52
C       0.38       9.02      -3.83
C      -4.33      10.32      -3.85
C      -3.50       7.21      -6.38
C      -3.43      10.84      -1.77
C       0.57      -0.16       3.85
C      -0.69       8.13      -0.00
C       0.99       3.82       1.39
C      -1.02       3.83      -3.29
C      -4.74       6.35      -1.39
C      -4.13       1.15       3.83
C      -3.06       2.04       0.00
C      -2.74       6.33       3.29
C       1.27       5.84      -8.10
C      -0.32      -0.68       1.77
N      -2.88       5.79       4.52
N      -2.28       4.26       3.08
N      -1.16       5.67      -4.34
N      -2.59       4.50       4.34
N      -1.38       4.77      -2.38
N      -3.66       9.94      -2.74
N      -1.47       5.91      -3.08
N      -0.88       4.38      -4.52
N      -2.37       5.40       2.38
N      -0.09       0.23       2.74
O       0.25       6.03      -7.31
O       1.06       8.36      -4.69
O      -0.91       9.04      -3.88
O      -2.85       1.13       3.88
O      -3.30       3.30      -0.00
O      -0.45       6.87       0.00
O      -2.19       1.44       0.72
O      -1.56       8.73      -0.72
O      -4.82       1.81       4.69
O      -0.16       3.72       0.79
O      -2.47       7.02      -7.18
O      -3.60       6.45      -0.79
