104

Co      10.96       0.61       6.29
Co       3.95       5.68      13.32
Co      -4.81      11.97       7.76
Co       2.20       6.90       0.74
H       8.37       1.23       7.52
H       6.05       1.90       6.85
H       7.39       1.84       2.75
H       9.65       1.19       3.59
H       1.46       3.33       3.49
H       5.67       3.50       2.62
H       4.21       1.10       5.91
H       6.55       5.06       0.49
H       8.86       4.39      13.88
H       7.53       4.45       9.77
H       5.27       5.10      10.62
H       1.62       2.95      10.52
H       9.24       2.79       9.65
H      -1.13       5.18      12.93
H      -2.21      11.35       6.53
H       0.10      10.68       7.20
H      -1.23      10.74      11.30
H      -3.49      11.39      10.46
H       4.70       9.24      10.56
H       0.48       9.08      11.43
H       1.94      11.47       8.15
H      -0.39       7.52      13.56
H      -2.71       8.18       0.17
H      -1.37       8.12       4.28
H       0.89       7.47       3.43
H       4.54       9.62       3.53
H      -3.09       9.79       4.41
H       7.29       7.39       1.12
C       8.10       1.38       6.48
C       6.81       1.74       6.09
C       6.51       1.92       4.73
C       7.56       1.73       3.82
C       8.82       1.36       4.28
C       2.48       3.03       3.72
C       3.55       3.51       2.95
C       4.86       3.11       3.23
C       5.13       2.27       4.33
C       4.05       1.79       5.08
C       2.73       2.13       4.76
C       3.31       4.48       1.84
C       1.63       1.49       5.55
C       6.82       4.91      13.50
C       8.10       4.55      13.12
C       8.41       4.37      11.76
C       7.36       4.56      10.84
C       6.10       4.93      11.30
C       0.60       3.26      10.74
C      -0.47       2.78       9.97
C      10.05       3.18      10.26
C       9.79       4.01      11.35
C      -0.97       4.50      12.10
C       0.35       4.16      11.79
C      -0.24       1.81       8.87
C       1.45       4.80      12.58
C      -1.94      11.20       7.58
C      -0.66      10.84       7.96
C      -0.35      10.66       9.32
C      -1.40      10.85      10.23
C      -2.66      11.22       9.78
C       3.68       9.55      10.34
C       2.61       9.07      11.10
C       1.29       9.47      10.82
C       1.03      10.30       9.72
C       2.11      10.79       8.98
C       3.43      10.45       9.29
C       2.84       8.09      12.21
C       4.53      11.08       8.50
C      -0.66       7.66       0.55
C      -1.95       8.03       0.93
C      -2.25       8.21       2.29
C      -1.20       8.02       3.21
C       0.06       7.65       2.75
C       5.56       9.31       3.31
C       6.63       9.79       4.08
C      -3.90       9.40       3.79
C      -3.63       8.56       2.70
C       7.13       8.07       1.95
C       5.81       8.42       2.26
C       6.39      10.77       5.18
C       4.70       7.78       1.47
N       9.09       1.18       5.59
N       5.82       5.11      12.61
N      -2.94      11.40       8.46
N       0.34       7.47       1.44
O       0.41       1.73       5.22
O       1.98       0.72       6.50
O       2.39       5.34       2.01
O       4.07       4.40       0.82
O       2.67       4.55      12.24
O       1.09       5.57      13.52
O       0.69       0.94       9.03
O      10.84       1.88       7.84
O       5.75      10.84       8.84
O       4.17      11.86       7.56
O       3.77       7.23      12.05
O       2.08       8.17      13.23
O       3.49       8.02       1.81
O       5.06       7.01       0.53
O       5.47      11.63       5.02
O      -4.69      10.69       6.21
