414

C      37.26      19.06      16.60
C      36.24      18.16      16.28
C      35.45      18.72      15.28
C      35.95      19.98      14.97
C      35.29      20.78      14.00
C      34.12      20.30      13.35
C      33.65      19.00      13.68
C      34.31      18.21      14.64
C      36.14      16.91      16.93
C      37.11      16.56      17.89
C      38.17      17.44      18.22
C      38.23      18.70      17.57
C      38.38      20.59      14.97
C      38.87      21.86      15.31
C      38.06      22.43      16.26
C      37.03      21.55      16.60
C      38.19      23.69      16.85
C      37.27      24.07      17.83
C      36.21      23.21      18.23
C      36.09      21.94      17.59
C      39.06      19.84      13.97
C      40.22      20.37      13.34
C      40.67      21.66      13.74
C      40.01      22.41      14.71
C      37.16      20.29      15.78
C      35.37      23.61      19.27
C      40.88      19.71      12.29
C      39.21      17.04      19.07
C      33.40      21.15      12.50
C       9.31      41.16      14.98
C      10.34      42.06      15.30
C      11.15      41.48      16.27
C      10.65      40.21      16.59
C      11.28      39.44      17.58
C      12.43      39.93      18.27
C      12.93      41.21      17.90
C      12.30      41.98      16.91
C      10.43      43.31      14.66
C       9.49      43.64      13.67
C       8.45      42.74      13.30
C       8.37      41.50      13.98
C       9.55      38.67      14.95
C       8.52      37.79      15.29
C       7.74      38.34      16.28
C       8.22      39.61      16.61
C       6.61      37.78      16.90
C       5.94      38.52      17.87
C       6.38      39.82      18.24
C       7.53      40.36      17.60
C      10.49      38.27      13.97
C      10.37      37.00      13.32
C       9.29      36.16      13.70
C       8.36      36.54      14.67
C       9.43      39.91      15.78
C       5.61      40.56      19.16
C      11.32      36.53      12.41
C       7.60      43.00      12.23
C      12.96      39.21      19.34
C      23.40      15.31       5.81
C      22.37      16.04       5.19
C      21.58      16.62       6.17
C      22.09      16.26       7.43
C      21.43      16.70       8.60
C      20.26      17.50       8.51
C      19.79      17.87       7.22
C      20.44      17.44       6.06
C      22.28      16.10       3.79
C      23.24      15.44       3.00
C      24.31      14.72       3.60
C      24.37      14.65       5.02
C      24.52      15.96       7.95
C      25.00      15.03       8.88
C      24.19      13.92       8.90
C      23.16      14.07       7.97
C      24.33      12.78       9.69
C      23.41      11.74       9.54
C      22.34      11.82       8.59
C      22.23      13.01       7.81
C      25.20      17.19       7.80
C      26.36      17.48       8.58
C      26.81      16.49       9.50
C      26.15      15.27       9.65
C      23.29      15.40       7.29
C      21.50      10.72       8.42
C      27.02      18.71       8.53
C      25.35      14.18       2.83
C      19.54      17.81       9.67
C      23.18      44.88      25.76
C      24.20      44.15      26.38
C      25.02      43.60      25.40
C      24.51      43.96      24.14
C      25.14      43.48      22.97
C      26.29      42.64      23.05
C      26.79      42.32      24.34
C      26.16      42.80      25.51
C      24.29      44.08      27.78
C      23.35      44.77      28.57
C      22.31      45.54      27.97
C      22.23      45.57      26.55
C      23.41      46.14      23.62
C      22.38      46.30      22.69
C      21.60      45.16      22.67
C      22.09      44.24      23.60
C      20.48      44.91      21.87
C      19.81      43.69      22.03
C      20.24      42.72      22.97
C      21.40      43.01      23.76
C      24.35      47.20      23.77
C      24.23      48.39      22.99
C      23.15      48.49      22.07
C      22.22      47.45      21.92
C      23.30      44.80      24.28
C      19.48      41.56      23.15
C      25.18      49.42      23.04
C      21.46      46.34      28.73
C      26.82      42.07      21.90
C       9.54      26.53       7.96
C       8.51      26.70       8.90
C       7.72      25.56       8.91
C       8.22      24.65       7.98
C       7.57      23.42       7.77
C       6.39      23.09       8.51
C       5.92      24.02       9.47
C       6.58      25.25       9.68
C       8.41      27.89       9.65
C       9.38      28.90       9.48
C      10.45      28.74       8.56
C      10.50      27.54       7.79
C      10.65      24.35       7.45
C      11.14      24.01       6.18
C      10.33      24.55       5.21
C       9.30      25.28       5.81
C      10.47      24.43       3.82
C       9.54      25.09       3.01
C       8.48      25.86       3.55
C       8.37      25.95       4.97
C      11.33      23.86       8.59
C      12.50      23.05       8.45
C      12.95      22.75       7.14
C      12.28      23.22       6.00
C       9.43      25.20       7.30
C       7.64      26.57       2.68
C      13.15      22.47       9.55
C      11.49      29.67       8.47
C       5.68      21.93       8.20
C      37.04      33.68      23.59
C      38.07      33.51      22.65
C      38.88      34.64      22.67
C      38.38      35.54      23.60
C      39.01      36.80      23.78
C      40.16      37.14      23.01
C      40.66      36.19      22.09
C      40.03      34.94      21.91
C      38.16      32.33      21.89
C      37.22      31.30      22.10
C      36.18      31.44      23.06
C      36.10      32.65      23.79
C      37.28      34.90      25.76
C      36.24      35.63      26.36
C      35.46      36.22      25.38
C      35.95      35.87      24.12
C      34.34      37.03      25.56
C      33.67      37.50      24.43
C      34.10      37.17      23.11
C      35.26      36.35      22.97
C      38.22      34.25      26.60
C      38.10      34.33      28.02
C      37.01      35.07      28.56
C      36.09      35.72      27.74
C      37.16      35.00      24.27
C      33.34      37.60      22.02
C      39.04      33.77      28.89
C      35.33      30.37      23.37
C      40.69      38.43      23.10
C      35.13      25.90      20.39
C      35.16      26.90      22.56
C      35.18      28.18      21.98
C      35.11      27.19      19.79
C       3.70      39.79      20.68
C       1.45      40.36      21.23
C       1.31      39.16      21.95
C       3.60      38.59      21.44
C      11.23      34.46      10.89
C      12.52      32.53      10.34
C      11.43      32.00       9.62
C      10.13      33.96      10.13
C       1.53      20.25      11.17
C       2.46      20.61       9.01
C       3.66      21.06       9.59
C       2.75      20.66      11.78
C      21.27       8.61       9.84
C      21.30       6.23       9.62
C       7.45      45.30      11.03
C      21.25       8.49      11.26
C      17.57      40.63      21.73
C      15.31      39.86      21.94
C      15.17      39.84      20.54
C      17.46      40.57      20.31
C      25.09      51.76      22.01
C      40.25      14.00      20.61
C      39.16      14.88      20.51
C      37.86      13.46      21.95
C      29.25      19.41       9.56
C      30.19      21.11      10.95
C      31.39      20.38      11.06
C      30.47      18.69       9.61
C       7.40      26.39       0.14
C      21.29      47.37      32.15
C      21.32      46.23      31.33
C      21.24      44.83      33.28
C      31.43      39.30      21.93
C      29.18      39.49      21.16
C      29.04      40.72      21.84
C      31.32      40.56      22.59
C      38.95      33.49      31.43
C      40.24      33.97      33.38
C      25.30      14.01       0.24
C      37.86      33.08      32.24
C      15.39      21.23       9.64
C      16.32      19.17      10.41
C      17.52      19.45       9.73
C      16.61      21.55       8.98
H      41.49      22.11      13.30
H      40.35      23.34      14.96
H      38.96      24.32      16.60
H      37.42      24.98      18.27
H      35.35      21.29      17.86
H      38.70      18.92      13.71
H      35.66      21.71      13.80
H      32.80      18.63      13.25
H      33.94      17.29      14.88
H      38.99      19.35      17.76
H      35.39      16.26      16.69
H      37.04      15.63      18.32
H      40.43      18.99      11.78
H      34.83      22.95      19.78
H      40.05      17.58      19.07
H      33.63      22.12      12.49
H       9.16      35.23      13.29
H       7.60      35.90      14.93
H       6.26      36.85      16.64
H       5.11      38.09      18.27
H       7.87      41.29      17.83
H      11.26      38.90      13.73
H      10.88      38.53      17.83
H      13.74      41.61      18.38
H      12.66      42.91      16.68
H       7.65      40.81      13.74
H      11.18      43.96      14.89
H       9.60      44.54      13.19
H      12.22      36.93      12.35
H       5.69      41.54      19.21
H       7.06      42.26      11.85
H      12.43      38.46      19.72
H      27.62      16.65      10.10
H      26.49      14.59      10.33
H      25.09      12.68      10.37
H      23.56      10.91      10.11
H      21.48      13.11       7.12
H      24.83      17.88       7.14
H      21.79      16.40       9.51
H      18.94      18.43       7.12
H      20.07      17.69       5.14
H      25.13      14.16       5.49
H      21.53      16.64       3.34
H      23.18      15.53       1.98
H      26.57      19.52       8.16
H      20.96      10.62       7.59
H      26.19      13.91       3.29
H      19.76      17.34      10.52
H      23.03      49.30      21.47
H      21.47      47.55      21.24
H      20.13      45.60      21.20
H      18.97      43.56      21.46
H      21.73      42.34      24.45
H      25.12      47.09      24.43
H      24.74      43.73      22.06
H      27.60      41.71      24.45
H      26.53      42.53      26.43
H      21.51      46.12      26.08
H      25.05      43.55      28.23
H      23.46      44.74      29.58
H      26.08      49.27      23.41
H      19.56      41.02      23.98
H      20.92      47.04      28.28
H      26.30      42.12      21.05
H      13.76      22.15       6.97
H      12.62      22.97       5.07
H      11.23      23.90       3.40
H       9.69      25.01       2.00
H       7.62      26.50       5.40
H      10.97      24.09       9.52
H       7.93      22.78       7.06
H       5.07      23.84      10.01
H       6.21      25.92      10.36
H      11.27      27.39       7.12
H       7.67      28.01      10.34
H       9.31      29.73      10.07
H      12.71      22.40      10.43
H       7.10      27.34       3.00
H      12.32      29.41       8.01
H       5.90      21.44       7.36
H      36.89      35.18      29.57
H      35.33      36.27      28.17
H      33.99      37.27      26.49
H      32.84      38.07      24.60
H      35.60      36.09      22.04
H      38.99      33.73      26.17
H      38.61      37.46      24.44
H      41.47      36.40      21.50
H      40.39      34.27      21.22
H      35.38      32.78      24.51
H      38.91      32.21      21.21
H      37.33      30.44      21.56
H      39.95      33.52      28.57
H      33.42      37.16      21.14
H      34.79      30.42      24.20
H      40.16      39.14      23.56
H      35.20      26.78      23.57
H       0.67      41.00      21.12
H      13.39      32.01      10.44
H       2.33      20.61       7.99
H      21.34       5.41       9.01
H      14.53      39.63      22.56
H      41.12      14.17      20.11
H      30.06      21.99      11.46
H      21.33      48.31      31.75
H      28.39      39.08      20.65
H      41.11      34.33      33.78
H      16.19      18.30      10.92
N      35.17      25.81      21.75
N      35.17      28.27      20.63
N      35.21      27.41      18.38
N      35.39      24.83      19.67
N      35.23      29.28      22.71
N       2.62      40.61      20.59
N       2.38      38.33      22.01
N       4.61      37.58      21.48
N       4.71      39.96      19.85
N       0.18      38.82      22.54
N      12.36      33.72      10.98
N      10.29      32.73       9.56
N       8.85      34.58      10.09
N      11.05      35.47      11.72
N      11.50      30.83       9.03
N       1.43      20.26       9.82
N       3.74      21.08      10.94
N       2.92      20.83      13.18
N       0.43      20.14      11.90
N       4.68      21.48       8.86
N      21.31       7.48       9.09
N      21.31       7.22      11.77
N      21.35       9.59      12.15
N      21.53       9.77       9.28
N       7.50      44.12      11.61
N      16.49      40.29      22.48
N      16.25      40.21      19.80
N      18.47      41.03      19.41
N      18.57      41.26      22.29
N      14.05      39.50      19.96
N      40.09      12.85      21.32
N      38.02      14.57      21.17
N      36.58      13.19      22.51
N      24.91      50.54      22.47
N      39.22      15.99      19.79
N      29.15      20.58      10.25
N      31.47      19.20      10.39
N      30.65      17.38       9.05
N      28.16      18.84       9.10
N      32.40      20.81      11.78
N      21.30      47.21      33.50
N      21.30      45.02      31.93
N      21.34      43.50      33.80
N       7.66      26.30       1.42
N      21.37      46.31      30.01
N      30.35      38.81      21.26
N      30.11      41.18      22.53
N      32.33      41.10      23.44
N      32.44      38.50      22.20
N      27.91      41.40      21.83
N      40.09      33.93      32.03
N      38.02      33.20      33.59
N      36.58      32.73      31.73
N      38.78      33.70      30.14
N      25.36      14.09       1.55
N      15.29      20.05      10.31
N      17.60      20.62       9.04
N      16.79      22.68       8.13
N      14.30      21.92       9.37
N      18.54      18.61       9.74
O      34.68      28.50      18.05
O      34.57      26.56      17.70
O       4.54      36.92      22.55
O       5.77      38.05      21.51
O       8.24      34.30       9.02
O       8.91      35.84      10.06
O       4.13      20.69      13.52
O       2.34      19.95      13.86
O      20.81       9.33      13.26
O      20.71      10.60      11.76
O      18.40      40.45      18.30
O      19.63      40.77      19.81
O      35.97      14.25      22.80
O      22.77      51.80      23.62
O      31.85      17.17       8.77
O      30.06      17.23       7.95
O      20.81      42.67      33.02
O       6.85      23.73       0.91
O      32.27      42.35      23.48
O      33.50      40.89      23.01
O      35.97      31.95      32.51
O      36.63      32.08      30.66
O      17.99      23.04       8.09
O      16.20      23.71       8.55
