228

C       1.61       0.36       9.49
C       2.25       1.51       8.98
C       1.46       2.10       8.02
C       0.28       1.36       7.86
C      18.50       1.82       6.92
C      18.73       3.02       6.18
C       0.76       3.71       6.36
C       1.72       3.26       7.27
C       3.51       1.93       9.41
C       4.17       1.18      10.38
C       3.60       0.01      10.95
C       2.30      25.69      10.49
C      18.24      26.04       9.56
C      17.64      24.83       9.19
C      18.38      24.20       8.21
C       0.32      24.98       7.92
C      18.10      23.00       7.54
C      18.99      22.56       6.55
C       0.96      23.31       6.22
C       1.21      24.53       6.91
C      17.57       0.78      10.51
C      16.30       0.39      11.05
C      15.77      25.21      10.67
C      16.42      24.39       9.74
C       0.31       0.15       8.74
C      11.20      26.04      16.92
C      11.84      24.90      17.43
C      11.05      24.30      18.39
C       9.87      25.04      18.54
C       8.90      24.58      19.48
C       9.13      23.38      20.22
C      10.35      22.69      20.04
C      11.32      23.14      19.13
C      13.11      24.48      17.00
C      13.77      25.23      16.03
C      13.19       0.33      15.46
C      11.89       0.71      15.91
C       8.65       0.36      16.84
C       8.04       1.57      17.21
C       8.79       2.20      18.19
C       9.91       1.42      18.48
C       8.51       3.40      18.86
C       9.39       3.84      19.85
C      10.55       3.09      20.18
C      10.80       1.87      19.49
C       7.98      25.61      15.89
C       6.71      26.00      15.35
C       6.18       1.19      15.73
C       6.83       2.01      16.66
C       9.91       0.17      17.66
C       6.41      16.92       0.36
C       7.05      17.43       1.50
C       6.26      18.39       2.09
C       5.08      18.54       1.36
C       4.11      19.48       1.82
C       4.34      20.21       3.02
C       5.57      20.04       3.71
C       6.53      19.13       3.25
C       8.31      17.00       1.91
C       8.97      16.03       1.16
C       8.40      15.45      26.07
C       7.09      15.91      25.68
C       3.86      16.84      26.04
C       3.25      17.20      24.83
C       3.99      18.18      24.20
C       5.11      18.48      24.97
C       3.71      18.85      22.99
C       4.59      19.84      22.55
C       5.75      20.17      23.30
C       6.00      19.49      24.52
C       3.19      15.89       0.79
C       1.92      15.34       0.40
C       1.39      15.72      25.21
C       2.03      16.65      24.39
C       5.11      17.65       0.15
C      16.00       9.49      26.04
C      16.64       8.98      24.90
C      15.85       8.02      24.30
C      14.67       7.86      25.04
C      13.71       6.92      24.57
C      13.94       6.19      23.37
C      15.16       6.37      22.68
C      16.12       7.28      23.14
C      17.90       9.41      24.48
C      18.56      10.38      25.24
C      17.98      10.95       0.34
C      16.68      10.49       0.72
C      13.45       9.56       0.36
C      12.83       9.19       1.57
C      13.58       8.21       2.20
C      14.70       7.91       1.42
C      13.29       7.54       3.40
C      14.17       6.55       3.84
C      15.34       6.22       3.10
C      15.59       6.91       1.88
C      12.77      10.51      25.61
C      11.51      11.05      26.00
C      10.97      10.67       1.19
C      11.62       9.74       2.00
C      14.70       8.74       0.18
C      17.76       3.65       5.36
C      17.31       3.16       4.12
C      16.53       3.98       3.26
C      16.24       5.31       3.70
C       8.16      22.75      21.03
C       7.72      23.24      22.28
C       6.94      22.41      23.13
C       6.65      21.09      22.70
C       3.38      21.03       3.65
C       2.91      22.26       3.15
C       2.13      23.12       3.97
C       1.87      22.71       5.31
C      12.97       5.37      22.74
C      12.48       4.15      23.25
C      11.70       3.29      22.43
C      11.46       3.69      21.09
C      13.94       0.93      14.38
C      13.36       1.22      13.13
C      14.16       1.30      11.96
C      15.57       1.08      12.07
C       4.34      25.48      12.03
C       3.76      25.17      13.28
C       4.57      25.09      14.45
C       5.98      25.31      14.34
C      18.72      12.03       0.94
C      18.15      13.28       1.24
C      18.96      14.45       1.31
C       1.18      14.33       1.10
C       9.14      14.38      25.47
C       8.56      13.12      25.17
C       9.37      11.96      25.09
C      10.77      12.07      25.31
H      14.90      24.86      11.07
H      16.00      23.50       9.47
H      17.27      22.44       7.76
H      18.78      21.67       6.07
H       2.05      25.07       6.70
H      17.99       1.68      10.79
H      17.62       1.31       6.81
H       0.96       4.58       5.85
H       2.59       3.79       7.40
H       1.85      24.85      10.88
H       3.95       2.77       9.03
H       5.07       1.54      10.70
H       5.31       1.54      15.33
H       6.41       2.90      16.93
H       7.68       3.96      18.64
H       9.19       4.73      20.32
H      11.64       1.33      19.70
H       8.40      24.72      15.62
H       8.02      25.09      19.58
H      10.55      21.82      20.56
H      12.18      22.61      19.01
H      11.44       1.55      15.53
H      13.55      23.64      17.38
H      14.67      24.87      15.71
H       0.51      15.32      24.86
H       1.61      16.92      23.50
H       2.88      18.63      22.44
H       4.38      20.31      21.66
H       6.84      19.70      25.06
H       3.60      15.62       1.68
H       3.23      19.58       1.31
H       5.76      20.55       4.58
H       7.39      19.01       3.78
H       6.64      15.52      24.85
H       8.76      17.38       2.75
H       9.88      15.71       1.52
H      10.10      11.07       1.53
H      11.20       9.47       2.89
H      12.46       7.76       3.95
H      13.97       6.07       4.73
H      16.43       6.69       1.34
H      13.19      10.79      24.72
H      12.82       6.81      25.08
H      15.36       5.86      21.81
H      16.98       7.41      22.61
H      16.23      10.87       1.56
H      18.35       9.04      23.64
H       0.28      10.70      24.88
H      16.27       2.58       1.81
H      15.52       4.02       1.49
H      17.58       2.22       3.82
H       6.68      23.81      24.59
H       5.93      22.37      24.91
H       7.99      24.18      22.58
H       1.83      24.55       2.55
H       1.10      24.89       4.00
H       3.16      22.55       2.20
H      11.38       1.88      23.87
H      10.66       1.53      22.41
H      12.72       3.87      24.21
H      12.61       1.62      10.68
H      14.09       1.56       9.94
H      12.34       1.23      13.04
H       3.01      24.78      15.73
H       4.50      24.84      16.47
H       2.74      25.16      13.37
H      17.41      15.73       1.63
H      18.89      16.47       1.57
H      17.13      13.37       1.25
H       7.81      10.67      24.77
H       9.30       9.93      24.83
H       7.54      13.03      25.16
N      16.71       5.69       4.92
N      17.43       4.93       5.68
N      16.07       3.49       2.08
N       7.12      20.71      21.48
N       7.84      21.47      20.71
N       6.48      22.90      24.31
N       2.36      21.50       5.71
N       3.08      20.73       4.94
N       1.64      24.29       3.47
N      11.96       4.89      20.68
N      12.68       5.66      21.44
N      11.20       2.13      22.94
N      16.06       0.88      13.32
N      15.30       0.83      14.39
N      13.57       1.47      10.75
N       6.46      25.53      13.08
N       5.70      25.59      12.02
N       3.97      24.91      15.66
N       1.66      13.08       0.90
N       0.90      12.02       0.84
N      18.36      15.66       1.48
N      11.26      13.32      25.51
N      10.50      14.38      25.57
N       8.77      10.75      24.92
