402

Zn       2.44       5.05      25.83
Zn       0.00       9.27      11.08
Zn      -2.44       5.05      40.64
Zn       3.14       4.63       3.68
Zn       5.58       0.41      33.23
Zn       8.02       4.63      18.48
H       2.70       7.71      34.00
H       7.24       4.50      32.15
H       2.67       6.40      29.62
H       2.13       7.48      31.78
H       1.20       6.92      27.77
H       8.64       0.27      24.38
H       3.27       7.47      24.22
H       6.33       3.74      28.01
H       0.93       9.36      28.10
H       7.82       3.42      30.01
H       7.43       1.99      27.39
H       6.07       1.72      26.34
H      -2.43       8.16      19.22
H       3.65       4.03      17.38
H      -1.29       8.79      14.85
H      -1.95       7.79      17.01
H      -1.01       7.26      13.01
H       6.62       7.35       9.61
H      -2.51       8.78       9.46
H       4.77       3.62      13.24
H      -2.98       5.80      13.33
H       4.30       5.07      15.24
H       5.73       5.44      12.61
H       6.64       4.40      11.56
H      -0.26       3.49       4.46
H       5.86       1.15       2.62
H      -1.38       4.16       0.08
H      -0.18       4.09       2.24
H      -0.19       5.18      42.56
H       1.49       2.07      39.15
H      -0.77       3.13      39.01
H       5.65       2.32      42.79
H       2.07       4.19      42.87
H       4.63       1.19       0.47
H       3.60       2.25      42.15
H       4.04       3.55      41.10
H       0.26       3.49      17.70
H       5.31       1.15      19.54
H       1.38       4.16      22.08
H       0.18       4.09      19.92
H       0.19       5.18      23.90
H       9.68       2.07      27.32
H       0.77       3.13      27.46
H       5.52       2.32      23.68
H      -2.07       4.19      23.60
H       6.54       1.19      21.69
H       7.56       2.25      24.32
H       7.12       3.55      25.37
H      -2.70       7.71      32.47
H       3.92       4.50      34.31
H      -2.67       6.40      36.85
H      -2.13       7.48      34.69
H      -1.20       6.92      38.70
H       2.53       0.27      42.09
H      -3.27       7.47      42.24
H       4.84       3.74      38.46
H      -0.93       9.36      38.37
H       3.35       3.42      36.46
H       3.74       1.99      39.08
H       5.10       1.72      40.13
H       2.43       8.16       2.93
H       7.52       4.03       4.77
H       1.29       8.79       7.31
H       1.95       7.79       5.15
H       1.01       7.26       9.15
H       4.55       7.35      12.55
H       2.51       8.78      12.70
H       6.40       3.62       8.91
H       2.98       5.80       8.83
H       6.86       5.06       6.92
H       5.44       5.44       9.54
H       4.53       4.40      10.59
H       2.89       1.97      11.84
H      -1.66       5.18      10.00
H       2.92       3.28       7.47
H       3.46       2.20       9.62
H       4.38       2.76       5.61
H      -3.05       9.41       2.22
H       2.31       2.21       2.07
H      -0.75       5.95       5.86
H       4.66       0.32       5.94
H      -2.23       6.26       7.85
H      -1.85       7.69       5.23
H      -0.49       7.96       4.19
H       8.02       1.52      41.38
H       1.94       5.66      39.54
H       6.88       0.89      37.01
H       7.54       1.89      39.16
H       6.59       2.42      35.17
H      -1.04       2.33      31.76
H       8.09       0.90      31.62
H       0.81       6.06      35.40
H       8.57       3.88      35.49
H       1.28       4.62      37.39
H      -0.14       4.25      34.77
H      -1.06       5.28      33.72
H       5.85       6.19      26.61
H      -0.27       8.53      24.77
H       6.96       5.52      22.24
H       5.76       5.59      24.39
H       5.77       4.50      20.41
H       4.09       7.61      16.99
H       6.35       6.55      16.85
H      -0.07       7.36      20.63
H       3.52       5.49      20.72
H       0.95       8.49      22.62
H       1.98       7.44      20.00
H       1.54       6.13      18.94
H       5.32       6.19      39.86
H       0.27       8.53      41.70
H       4.21       5.52      44.23
H       5.40       5.59      42.07
H       5.40       4.50       1.75
H      -4.09       7.61       5.17
H       4.82       6.55       5.31
H       0.06       7.36       1.53
H       7.65       5.49       1.44
H      -0.95       8.49      43.84
H      -1.98       7.44       2.16
H      -1.54       6.13       3.22
H       8.28       1.97      10.32
H       1.66       5.18      12.16
H       8.25       3.28      14.69
H       7.71       2.21      12.53
H       6.79       2.76      16.54
H       3.05       9.41      19.93
H       8.86       2.21      20.09
H       0.75       5.95      16.30
H       6.51       0.32      16.22
H       2.23       6.26      14.31
H       1.85       7.69      16.92
H       0.49       7.96      17.97
H       3.15       1.52      25.09
H      -1.94       5.66      26.93
H       4.29       0.89      29.46
H       3.63       1.89      27.30
H       4.58       2.42      31.30
H       1.04       2.33      34.70
H       3.08       0.90      34.85
H      -0.81       6.06      31.07
H       2.60       3.88      30.98
H      -1.28       4.62      29.08
H       0.14       4.25      31.70
H       1.06       5.28      32.75
C       5.42       5.41      31.43
C       3.91       6.76      32.79
C       6.60       4.62      31.29
C       4.89       4.89      29.07
C       4.53       5.53      30.30
C       5.11       6.05      32.66
C       3.34       6.30      30.46
C       3.04       6.88      31.67
C       1.61       7.62      27.05
C       4.03       4.95      27.86
C       7.52       0.20      26.24
C       2.62       9.32      25.16
C       2.76       7.94      25.06
C       6.07       4.18      28.97
C       1.46       8.99      27.22
C       6.91       4.02      30.09
C       7.17       1.66      26.37
C       3.78       1.99      16.66
C       3.37       0.01      18.02
C       3.87       3.41      16.52
C       4.49       1.79      14.30
C       4.12       1.16      15.53
C       3.38       1.40      17.89
C      -1.54       9.43      15.69
C      -1.89       8.87      16.90
C      -1.82       7.26      12.29
C       4.88       1.02      13.09
C       7.24       6.41      11.47
C      -3.79       7.29      10.39
C      -2.66       8.10      10.29
C       4.51       3.18      14.20
C      -2.93       6.44      12.45
C       4.23       3.98      15.32
C       6.14       5.38      11.60
C       7.55       2.28       1.89
C       9.48       2.91       3.25
C       6.28       1.65       1.75
C       7.37       2.99      43.85
C       8.10       2.99       0.76
C       8.26       2.23       3.12
C      -1.81       3.63       0.92
C      -1.15       3.61       2.13
C       0.22       4.48      41.84
C       7.85       3.71      42.63
C       2.00       3.07      41.01
C       1.17       2.76      39.93
C      -0.10       3.34      39.84
C       6.16       2.32      43.74
C       1.48       3.92      42.00
C       5.60       1.67       0.55
C       3.44       2.63      41.13
C       3.62       2.28      20.27
C       1.69       2.91      18.91
C       4.89       1.65      20.41
C       3.80       2.99      22.62
C       3.07       2.99      21.39
C       2.91       2.23      19.03
C       1.81       3.63      21.23
C       1.15       3.61      20.03
C      -0.22       4.47      24.63
C       3.32       3.71      23.84
C       9.17       3.07      25.46
C      -1.17       2.76      26.54
C       0.10       3.34      26.63
C       5.01       2.32      22.72
C      -1.48       3.92      24.47
C       5.57       1.67      21.61
C       7.73       2.63      25.33
C       5.75       5.41      35.04
C       7.26       6.76      33.68
C       4.57       4.62      35.18
C       6.28       4.89      37.40
C       6.64       5.53      36.17
C       6.06       6.05      33.80
C      -3.34       6.30      36.00
C      -3.04       6.88      34.80
C      -1.61       7.62      39.42
C       7.14       4.95      38.61
C       3.65       0.20      40.23
C      -2.62       9.32      41.31
C      -2.76       7.94      41.41
C       5.09       4.18      37.50
C      -1.46       8.99      39.25
C       4.26       4.02      36.38
C       3.99       1.66      40.09
C       7.39       1.99       5.50
C       7.80       0.01       4.14
C       7.30       3.41       5.64
C       6.68       1.79       7.85
C       7.05       1.16       6.62
C       7.79       1.40       4.26
C       1.54       9.43       6.46
C       1.89       8.87       5.26
C       1.82       7.26       9.87
C       6.29       1.02       9.07
C       3.93       6.41      10.69
C       3.79       7.29      11.77
C       2.66       8.10      11.86
C       6.65       3.18       7.96
C       2.93       6.44       9.70
C       6.93       3.98       6.84
C       5.03       5.38      10.56
C       0.16       4.27       9.27
C       1.68       2.92      10.63
C      -1.01       5.06       9.13
C       0.70       4.79       6.92
C       1.06       4.15       8.15
C       0.48       3.64      10.51
C       2.24       3.39       8.31
C       2.55       2.80       9.52
C       3.98       2.06       4.89
C       1.56       4.74       5.70
C      -1.93       9.48       4.08
C       2.96       0.36       3.00
C       2.83       1.74       2.90
C      -0.49       5.50       6.81
C       4.13       0.69       5.06
C      -1.33       5.66       7.93
C      -1.59       8.02       4.22
C       1.80       7.69      38.81
C       2.22       9.67      40.17
C       1.71       6.27      38.67
C       1.09       7.89      36.46
C       1.46       8.52      37.69
C       2.20       8.28      40.05
C       7.12       0.25      37.85
C       7.47       0.81      39.06
C       7.40       2.42      34.44
C       0.71       8.66      35.24
C      -1.66       3.27      33.63
C       9.37       2.39      32.54
C       8.24       1.58      32.45
C       1.07       6.50      36.36
C       8.51       3.24      34.61
C       1.35       5.70      37.48
C      -0.56       4.30      33.75
C      -1.97       7.40      24.04
C      -3.89       6.77      25.40
C      -0.70       8.03      23.91
C      -1.78       6.69      21.69
C      -2.52       6.69      22.92
C      -2.68       7.45      25.28
C       7.40       6.05      23.08
C       6.73       6.08      24.29
C       5.37       5.21      19.68
C      -2.26       5.97      20.48
C       3.58       6.61      18.86
C       4.42       6.93      17.77
C       5.68       6.34      17.68
C      -0.58       7.36      21.59
C       4.11       5.76      19.84
C      -0.02       8.01      22.71
C       2.14       7.05      18.98
C       1.97       7.40      42.42
C       3.89       6.77      41.06
C       0.70       8.03      42.56
C       1.78       6.69       0.47
C       2.52       6.69      43.55
C       2.68       7.45      41.19
C       3.77       6.05      43.39
C       4.44       6.08      42.18
C       5.80       5.21       2.48
C       2.26       5.97       1.68
C      -3.58       6.61       3.30
C       6.75       6.93       4.38
C       5.49       6.34       4.47
C       0.58       7.36       0.57
C       7.06       5.76       2.31
C       0.02       8.01      43.76
C      -2.14       7.05       3.18
C      -0.16       4.27      12.88
C      -1.68       2.92      11.52
C       1.01       5.06      13.02
C      -0.70       4.79      15.24
C      -1.06       4.15      14.01
C      -0.48       3.64      11.65
C       8.93       3.39      13.85
C       8.62       2.80      12.64
C       7.19       2.06      17.26
C      -1.56       4.74      16.45
C       1.93       9.48      18.07
C       8.21       0.36      19.16
C       8.34       1.74      19.25
C       0.49       5.50      15.34
C       7.04       0.69      17.09
C       1.33       5.66      14.22
C       1.59       8.02      17.94
C      -1.80       7.69      27.66
C      -2.22       9.67      26.30
C      -1.71       6.27      27.79
C      -1.09       7.89      30.01
C      -1.46       8.52      28.78
C      -2.20       8.28      26.42
C       4.05       0.25      28.62
C       3.69       0.81      27.41
C       3.77       2.42      32.03
C      -0.71       8.66      31.22
C       1.66       3.27      32.84
C       1.79       2.39      33.92
C       2.93       1.58      34.02
C      -1.07       6.50      30.11
C       2.66       3.24      31.86
C      -1.35       5.70      28.99
C       0.56       4.30      32.71
N       2.23       7.10      25.97
N      -1.67       8.07      11.21
N      -0.56       4.20      40.76
N       0.56       4.20      25.71
N      -2.23       7.10      40.49
N       1.67       8.07      10.94
N       3.35       2.58       3.82
N       7.26       1.62      33.37
N       6.14       5.48      18.61
N       5.03       5.48       3.55
N       7.82       2.58      18.34
N       3.91       1.62      33.10
O       4.57       5.21      26.72
O       2.77       4.69      27.93
O       3.63       7.34      33.97
O       4.37       1.35      11.95
O       5.72       0.06      13.16
O      -2.58       9.16      19.20
O       7.81       3.11      41.50
O       8.25       4.93      42.71
O      -1.05       2.87       4.43
O       3.35       3.11      24.97
O       2.92       4.93      23.76
O       1.05       2.87      17.72
O       6.60       5.21      39.74
O       8.40       4.69      38.54
O      -3.63       7.34      32.49
O       6.79       1.35      10.20
O       5.45       0.06       8.99
O       2.58       9.16       2.95
O       1.02       4.47       4.57
O       2.81       4.99       5.77
O       1.95       2.34      11.82
O       1.21       8.33      34.11
O      -0.14       9.62      35.32
O       8.16       0.52      41.36
O      -2.23       6.57      19.34
O      -2.67       4.75      20.55
O       6.64       6.82      26.59
O       2.23       6.57       2.81
O       2.67       4.75       1.61
O       4.53       6.82      39.88
O      -1.02       4.47      17.59
O      -2.81       4.99      16.38
O       9.22       2.34      10.34
O      -1.21       8.33      32.36
O       0.14       9.62      31.15
O       3.01       0.52      25.11
