22

C      12.44       6.85       9.96
C      12.13       7.09      11.40
C      10.80       6.94      11.87
C      10.47       7.25      13.18
C      11.47       7.73      14.08
C      11.15       8.11      15.40
C      12.13       8.63      16.24
C      13.47       8.76      15.78
C      13.80       8.39      14.50
C      12.82       7.87      13.61
C      13.12       7.53      12.27
C      11.75       9.14      17.58
H      10.04       6.60      11.17
H       9.45       7.14      13.53
H      10.13       8.02      15.76
H      14.21       9.18      16.46
H      14.82       8.51      14.12
H      14.15       7.65      11.92
O      11.45       6.50       9.22
O      13.64       7.02       9.56
O      12.62       9.73      18.32
O      10.53       9.05      17.98
