22

C      11.48      15.88      22.20
C      10.32      17.71      23.28
C      11.02      15.77      24.58
C       9.12      16.27      21.80
C       9.83      14.34      23.10
C       8.71      16.17      24.15
H      12.26      15.12      22.31
H      11.73      16.53      21.35
H      10.59      18.37      22.45
H      10.25      18.30      24.20
H      10.98      16.37      25.49
H      11.82      15.02      24.68
H       8.16      15.78      21.60
H       9.39      16.91      20.94
H      10.60      13.57      23.20
H       8.87      13.85      22.88
H       8.64      16.77      25.06
H       7.75      15.68      23.95
N      11.41      16.68      23.44
N      10.18      15.21      21.92
N       9.74      15.12      24.33
N       9.03      17.07      23.02
