22

O      10.76       1.71       4.12
O      10.84      -0.32       5.10
O      19.90      -1.46       4.18
O      19.90       0.73       4.78
C      11.39       0.70       4.56
C      12.88       0.73       4.46
C      13.60      -0.44       4.63
C      15.01      -0.45       4.52
C      15.77      -1.64       4.68
C      17.14      -1.61       4.62
C      17.81      -0.38       4.43
C      17.10       0.80       4.23
C      15.69       0.79       4.26
C      14.92       1.97       4.07
C      13.55       1.94       4.16
C      19.30      -0.35       4.44
H      13.06      -1.37       4.83
H      15.25      -2.58       4.85
H      17.72      -2.52       4.75
H      17.64       1.72       4.03
H      15.44       2.91       3.85
H      12.96       2.85       4.02
