22

O       2.88      18.85      26.10
O       0.99      17.60      25.91
O      -0.13      20.75      34.56
O       1.31      22.46      34.28
C       1.80      18.33      26.57
C       1.47      18.66      27.99
C       2.29      19.53      28.69
C       1.97      19.94      30.00
C       2.76      20.89      30.71
C       2.38      21.33      31.95
C       1.21      20.81      32.57
C       0.45      19.85      31.93
C       0.78      19.42      30.62
C      -0.03      18.50      29.89
C       0.30      18.14      28.60
C       0.75      21.34      33.90
H       3.19      19.91      28.22
H       3.66      21.28      30.22
H       2.96      22.09      32.48
H      -0.44      19.46      32.42
H      -0.93      18.11      30.37
H      -0.33      17.46      28.03
