132

Cu      15.02       9.88       8.54
Cu      15.04       0.59       0.54
Cu      16.57      20.37      17.57
Cu      16.76      11.17       9.66
H      15.30      15.23       9.22
H      14.10      17.32       8.62
H      11.18      14.99       6.46
H      12.40      12.91       7.07
H       4.47       1.76       6.55
H      15.22      16.33      18.09
H       6.17      11.44       0.55
H      19.09      13.68       2.58
H      20.28      15.80       2.02
H      19.90       8.62       2.40
H      16.50       0.82       4.63
H      25.56      18.82       6.80
H      12.62      16.51       4.79
H      11.40      16.80       2.64
H      11.45      17.39       9.82
H      16.19      10.05       4.44
H      17.35      10.29       2.23
H      20.82      11.84       4.26
H      19.63      11.63       6.45
H      27.55      14.25      17.30
H      16.44       5.84       9.10
H      17.70       3.74       9.57
H      20.88       6.07      11.31
H      19.60       8.16      10.83
H      27.49      19.31      11.39
H      24.06       7.44      17.84
H      25.22       9.57      17.21
H      12.64       7.31      15.86
H      11.47       5.19      16.47
H      11.56      12.40      15.65
H      15.39      20.32      13.44
H       6.43       2.33      11.21
H      19.21       4.50      13.11
H      20.32       4.19      15.32
H      20.51       3.69       8.12
H      15.27      11.31      13.72
H      14.00      11.09      15.86
H      11.05       8.69      13.84
H      12.31       8.94      11.71
H       3.92       6.77       0.75
C      14.65      12.69       8.54
C      13.93      13.93       8.19
C      14.40      15.18       8.62
C      13.72      16.35       8.28
C      12.55      16.30       7.50
C      12.08      15.05       7.06
C      12.76      13.88       7.40
C       4.28       1.61       7.61
C      22.56      16.08       0.58
C      21.87      14.81       0.96
C       6.42      13.58       0.55
C       5.76      12.39       0.87
C      20.54      12.42       1.59
C      20.02      13.66       2.02
C      20.68      14.84       1.71
C      19.85       8.84       1.34
C       9.07      18.08       2.22
C       9.80      17.96       3.50
C      25.28      18.54       4.68
C      25.96      18.38       5.89
C      11.17      17.64       5.94
C      11.68      17.07       4.76
C      11.01      17.23       3.56
C      11.65      18.40       9.45
C      17.12      10.71       6.87
C      17.84      10.83       5.57
C      17.20      10.44       4.38
C      17.85      10.57       3.16
C      19.16      11.08       3.11
C      19.80      11.46       4.30
C      19.14      11.35       5.52
C      27.61      13.21      17.64
C      17.20       8.38       9.64
C      17.94       7.13       9.93
C      17.41       5.88       9.58
C      18.12       4.71       9.84
C      19.38       4.77      10.47
C      19.91       6.03      10.83
C      19.20       7.19      10.57
C      27.66      19.47      10.33
C       9.01       4.92      17.55
C       9.70       6.19      17.19
C      25.06       7.43      17.41
C      25.70       8.61      17.06
C      11.02       8.57      16.50
C      11.64       7.33      16.28
C      10.99       6.15      16.61
C      11.62      12.18      16.71
C      22.63       2.91      15.84
C      21.98       3.09      14.52
C       6.59       2.57      13.35
C       5.97       2.73      12.12
C      20.74       3.43      12.02
C      20.15       3.97      13.18
C      20.77       3.80      14.42
C       4.30       2.69       8.49
C      14.61      10.30      11.30
C      13.87      10.14      12.58
C      14.34      10.75      13.76
C      13.63      10.62      14.95
C      12.43       9.88      14.99
C      11.97       9.26      13.81
C      12.68       9.40      12.62
C       3.87       7.80       0.41
C      11.88      18.59       8.08
C      19.80      10.17       0.92
C      20.06       2.49       9.86
C      11.68      10.84      17.13
N      11.86      17.49       7.17
N      19.83      11.23       1.87
N      20.10       3.59      10.76
N      11.69       9.78      16.19
O      14.15      11.59       8.09
O      15.71      12.80       9.25
O      21.99      17.18       0.92
O      15.56      18.74      18.05
O       9.62      17.54       1.19
O      16.08       0.42       2.23
O      17.63      11.31       7.88
O      16.04      10.02       6.87
O      17.74       9.49      10.00
O      16.07       8.27       9.03
O       9.58       3.83      17.19
O      16.02       2.25       0.10
O      22.05       3.44      16.86
O      15.60      20.52      15.87
O      14.07       9.80      10.25
O      15.74      10.91      11.34
