18

Ga      -0.00       5.30       9.26
Ga      -3.50       5.30       9.26
C       1.74       6.90       7.35
C       1.75       6.88      11.18
O      -2.90       4.01      10.70
O      -2.90       4.01       7.82
H      -1.75       7.14       9.30
O      -1.75       6.17       9.24
O       1.74       4.42       9.29
H       1.74       3.45       9.23
O      -0.61       4.01      10.71
O      -0.61       4.01       7.82
O      -4.10       6.58       7.82
O      -4.10       6.58      10.71
C      -1.75       3.70      11.17
C      -1.75       3.72       7.34
O       0.60       6.58       7.82
O       0.60       6.58      10.70
