18

Ga       3.49      10.67       0.00
Ga       6.99      10.67       0.00
O       2.89      10.06       1.83
O       2.90      12.56       0.40
C       5.24      11.56      -2.33
O       6.39      11.33      -1.82
C       5.24       8.22      -0.43
O       6.38       8.79      -0.44
C       1.74       9.78       2.33
O       5.25      11.08       0.77
C       1.75      13.12       0.43
O       1.74      10.26      -0.77
H       5.25      11.61       1.59
H       1.74       9.73      -1.59
O       4.10      11.28      -1.83
O       4.09       8.78      -0.40
O       0.59      10.01       1.82
O       0.60      12.55       0.44
