16

C       0.45       7.20       2.25
C       1.42       7.36       1.13
C       1.73       7.15      -1.30
C       0.94       7.06      -0.15
H       4.60       8.19       0.27
O       5.25       8.09      -2.03
H      -0.09       6.73      -0.27
O       3.36       8.10       2.48
O       3.64       7.47      -3.45
O      -0.74       6.84       2.03
O       0.87       7.46       3.45
C       3.09       7.57      -1.13
C       2.78       7.77       1.30
C       3.57       7.87       0.15
O       1.15       6.83      -2.48
C       4.06       7.72      -2.25
