16

O      -1.53      -2.31       8.06
O      -3.11      -0.74       8.19
O      -3.40      -6.20       5.77
H      -2.17      -4.32       6.97
H      -6.86      -3.14       5.97
C      -2.71      -1.92       7.83
C      -3.68      -2.81       7.14
C      -3.99      -5.02       6.08
C      -3.20      -4.07       6.75
O      -5.63      -1.26       7.17
O      -0.73      -5.15       4.88
O      -5.92      -6.72       4.75
C      -6.32      -5.54       5.11
C      -5.35      -4.66       5.81
C      -5.04      -2.45       6.86
C      -5.83      -3.40       6.19
