30

H       4.82      13.78      10.06
H       4.82      17.04      13.50
H       4.57      11.51      13.66
H       4.36      13.59      19.28
H       3.72      11.60      18.07
C       4.72      11.27      11.04
C       4.71      14.93      11.87
C       4.66      12.52      11.80
C       4.35      13.62      18.20
C       4.00      12.48      17.50
C       3.86      12.50      16.11
C       4.27      13.65      15.38
C       4.52      14.86      16.10
C       4.43      13.66      13.95
C       4.59      14.90      13.27
C       4.69      16.09      14.00
C       4.70      16.07      15.39
C       4.53      12.48      13.19
C       4.73      13.75      11.14
C       4.55      14.83      17.52
C       4.54      16.05      18.33
N       3.10      11.43      15.51
O       3.55      10.70      10.79
O       5.94      10.85      10.73
O       3.33      16.47      18.66
O       5.70      16.62      18.61
O       3.19      10.22      15.97
O       2.14      11.72      14.67
F       4.83      16.11      11.20
F       4.90      17.26      16.01
