992

H       0.31       9.46      18.57
H       1.08       8.45      22.89
H       3.31      13.14      19.11
H      29.46       5.51      22.61
H       2.94       9.19      21.84
H      32.11       7.27      19.01
H      16.39      35.87      35.91
H      17.16      36.87      31.59
H      19.38      32.18      35.37
H      13.39      39.81      31.86
H      19.02      36.13      32.64
H      16.04      38.05      35.47
H      15.20      36.46      18.24
H      13.31      38.00      21.95
H      13.17      32.07      18.68
H      17.47      40.23      23.40
H      13.26      35.62      21.87
H      16.82      37.17      19.79
H      31.28       8.86      36.24
H      29.37       7.33      32.53
H      29.25      13.25      35.79
H       1.39       5.10      31.08
H      29.33       9.70      32.61
H       0.75       8.15      34.69
H      31.95      36.68      36.55
H      30.71      36.49      32.61
H      28.56      33.30      37.43
H       1.47      40.16      31.48
H      28.49      36.80      34.15
H      31.35      39.30      35.69
H      15.87       8.64      17.93
H      14.64       8.83      21.87
H      12.49      12.02      17.05
H      17.55       5.16      23.00
H      12.42       8.52      20.32
H      15.28       6.02      18.79
H      16.49       9.22      36.13
H      18.62       9.32      32.40
H      19.85      12.41      37.54
H      15.94       5.54      30.57
H      20.23       8.98      34.21
H      16.79       6.74      35.17
H       0.42      36.09      18.35
H       2.55      36.00      22.07
H       3.78      32.90      16.94
H      32.01      39.77      23.91
H       4.16      36.34      20.27
H       0.72      38.58      19.31
H       0.31      30.36      45.73
H       1.07      29.39      50.06
H       3.32      34.04      46.24
H      29.46      26.42      49.80
H       2.93      30.12      49.01
H      32.11      28.17      46.19
H      16.38      14.96       8.75
H      17.14      15.93       4.41
H      19.40      11.29       8.24
H      13.39      18.90       4.68
H      19.00      15.21       5.47
H      16.04      17.15       8.29
H      15.21      15.52      45.40
H      13.31      17.03      49.11
H      13.16      11.13      45.82
H      17.46      19.28      50.57
H      13.28      14.66      49.03
H      16.84      16.23      46.95
H      31.29      29.80       9.08
H      29.39      28.29       5.37
H      29.24      34.19       8.65
H       1.39      26.04       3.91
H      29.36      30.66       5.44
H       0.76      29.10       7.53
H      31.93      15.82       9.43
H      30.72      15.55       5.46
H      28.51      12.50      10.42
H       1.48      19.21       4.30
H      28.51      15.85       6.99
H      31.36      18.39       8.51
H      15.86      29.50      45.05
H      14.65      29.77      49.03
H      12.43      32.82      44.06
H      17.56      26.11      50.18
H      12.43      29.47      47.50
H      15.28      26.94      45.97
H      16.52      30.11       9.03
H      18.60      30.32       5.25
H      19.93      33.21      10.55
H      15.92      26.57       3.37
H      20.23      29.96       7.03
H      16.81      27.68       7.99
H       0.45      15.21      45.45
H       2.53      15.00      49.22
H       3.86      12.11      43.93
H      31.99      18.75      51.11
H       4.15      15.36      47.45
H       0.74      17.64      46.49
H      30.20       9.90      30.09
H       0.10       4.52      26.03
H      31.36       3.73      28.09
H      31.92       9.26      26.42
H       1.07       7.60      25.12
H      29.52       4.42      29.75
H      14.13      35.43      24.39
H      16.18      40.80      28.44
H      15.29      41.59      26.39
H      15.85      36.07      28.06
H      17.14      37.72      29.36
H      13.46      40.90      24.73
H       0.19      33.41      26.36
H       0.28      40.18      28.24
H       1.68      39.82      26.36
H      30.66      35.87      29.18
H      30.57      39.20      29.77
H       3.18      37.25      25.77
H      16.28      11.91      28.11
H      16.35       5.13      26.24
H      17.75       5.50      28.12
H      14.59       9.45      25.29
H      14.50       6.11      24.71
H      19.25       8.06      28.70
H      30.19      30.85       2.91
H       0.09      25.47      53.22
H      31.35      24.68       0.92
H      31.90      30.21      53.60
H       1.05      28.56      52.30
H      29.52      25.38       2.59
H      14.12      14.47      51.57
H      16.16      19.85       1.26
H      15.28      20.64      53.56
H      15.83      15.12       0.88
H      17.12      16.77       2.18
H      13.44      19.94      51.89
H       0.09      12.42      53.58
H       0.34      19.20       1.06
H       1.72      18.79      53.53
H      30.63      14.92       2.04
H      30.60      18.26       2.60
H       3.15      16.17      52.94
H      16.17      32.90       0.92
H      16.41      26.13      53.41
H      17.80      26.53       0.94
H      14.55      30.40      52.45
H      14.52      27.07      51.89
H      19.22      29.14       1.54
H      30.19      16.34      15.31
H       1.72      10.52      13.90
H       1.32      11.76      11.92
H      31.74      13.11      17.29
H       0.55      10.10      16.29
H       0.73      14.21      11.02
H      14.12      28.97      39.17
H      17.79      34.81      40.58
H      17.39      33.57      42.57
H      15.66      32.21      37.19
H      16.62      35.22      38.19
H      16.80      31.12      43.46
H      17.77      29.23      15.01
H      14.48      35.30      13.62
H      14.93      34.10      11.61
H      16.30      32.48      17.02
H      15.63      35.50      16.15
H      15.48      31.66      10.65
H       1.70      16.09      39.47
H      30.56      10.03      40.85
H      31.00      11.22      42.87
H       0.22      12.84      37.46
H      31.70       9.82      38.33
H      31.56      13.67      43.82
H       1.21      29.17      39.56
H       0.05      35.84      41.46
H       0.50      34.49      43.37
H       0.35      32.78      37.83
H       0.50      35.87      38.73
H       0.60      30.94      43.44
H      17.29      16.15      14.92
H      16.12       9.48      13.01
H      16.57      10.83      11.11
H      16.43      12.54      16.65
H      16.58       9.45      15.75
H      16.68      14.38      11.03
H      15.03      16.64      39.37
H      15.88       9.86      41.05
H      15.39      11.15      42.99
H      15.85      13.06      37.53
H      15.58       9.97      38.27
H      15.47      14.66      43.23
H      31.10      28.68      15.11
H      31.96      35.46      13.42
H      31.47      34.17      11.49
H      31.92      32.26      16.94
H      31.66      35.35      16.20
H      31.55      30.66      11.24
H      27.89      41.08      21.70
H       0.39       3.75      19.00
H       1.39       1.61      19.28
H      28.12       3.18      20.66
H      29.31       4.35      18.72
H       0.93      41.03      19.41
H      11.81       4.24      32.77
H      16.46      41.57      35.48
H      17.46       1.85      35.20
H      12.05       0.28      33.82
H      13.23      40.97      35.75
H      17.00       4.29      35.07
H      20.58       3.90      21.84
H      16.56      40.78      18.91
H      15.61       1.08      18.56
H      20.44      41.68      21.53
H      19.71      40.04      19.97
H      16.09       3.64      18.53
H       4.50      41.42      32.64
H       0.48       4.54      35.56
H      31.68       2.38      35.92
H       4.37       3.64      32.94
H       3.63       5.28      34.51
H       0.02      41.68      35.95
H      27.90      20.10      48.88
H       0.42      24.66      46.23
H       1.42      22.53      46.53
H      28.13      24.06      47.83
H      29.33      25.23      45.91
H       0.98      20.09      46.66
H      11.82      25.22       5.61
H      16.49      20.66       8.25
H      17.49      22.80       7.95
H      12.05      21.26       6.64
H      13.26      20.09       8.57
H      17.05      25.24       7.83
H      20.58      24.82      49.04
H      16.56      19.85      46.09
H      15.61      22.01      45.75
H      20.44      20.74      48.72
H      19.71      19.11      47.15
H      16.10      24.57      45.72
H       4.51      20.50       5.44
H       0.49      25.47       8.38
H      31.69      23.32       8.73
H       4.37      24.58       5.76
H       3.64      26.22       7.33
H       0.02      20.76       8.76
H      10.02      14.80      18.83
H       6.04       9.18      20.28
H       7.95       8.55      19.00
H       6.49      13.90      20.70
H       5.83      11.98      22.12
H       9.92       9.68      17.33
H      26.09      30.53      35.65
H      22.11      36.14      34.20
H      24.02      36.77      35.48
H      22.56      31.41      33.78
H      21.90      33.33      32.36
H      25.99      35.64      37.15
H       6.47      29.96      18.28
H      10.20      35.58      20.27
H       8.33      36.24      18.95
H       9.91      30.82      20.34
H      10.57      32.58      21.84
H       6.41      34.93      17.03
H      22.54      15.36      36.20
H      26.27       9.74      34.20
H      24.40       9.09      35.52
H      25.98      14.51      34.14
H      26.64      12.74      32.64
H      22.48      10.39      37.44
H      10.05      35.66      45.95
H       6.02      30.08      47.43
H       7.92      29.43      46.14
H       6.50      34.80      47.83
H       5.83      32.90      49.26
H       9.89      30.53      44.47
H      26.12       9.66       8.53
H      22.10      15.25       7.05
H      23.99      15.89       8.34
H      22.58      10.52       6.64
H      21.91      12.43       5.22
H      25.97      14.80      10.01
H       6.46       9.08      45.38
H      10.23      14.65      47.44
H       8.38      15.34      46.11
H       9.89       9.89      47.47
H      10.57      11.64      48.98
H       6.46      14.08      44.18
H      22.53      36.24       9.10
H      26.30      30.67       7.04
H      24.45      29.99       8.37
H      25.97      35.43       7.01
H      26.65      33.68       5.50
H      22.54      31.24      10.30
C       1.51       9.09      20.28
C       1.17       9.72      19.05
C       1.95      10.77      18.48
C       3.05      11.27      19.22
C       3.41      10.67      20.45
C       2.65       9.60      20.95
C       0.70       8.03      20.85
C      32.08       7.17      20.02
C      31.24       6.17      20.55
C      31.17       5.99      21.95
C      31.95       6.80      22.82
C       0.61       7.82      22.25
C      17.58      36.23      34.20
C      17.25      35.60      35.43
C      18.02      34.55      36.00
C      19.12      34.05      35.26
C      19.48      34.65      34.04
C      18.72      35.72      33.53
C      16.78      37.29      33.63
C      16.01      38.15      34.45
C      15.17      39.15      33.92
C      15.10      39.33      32.52
C      15.88      38.53      31.66
C      16.68      37.50      32.23
C      14.31      36.26      20.14
C      14.57      35.89      18.80
C      14.00      34.73      18.21
C      13.11      33.94      18.98
C      12.80      34.31      20.31
C      13.43      35.43      20.88
C      14.96      37.37      20.78
C      16.30      37.72      20.47
C      16.94      38.82      21.08
C      16.28      39.55      22.10
C      14.95      39.21      22.44
C      14.29      38.17      21.74
C      30.38       9.07      34.33
C      30.64       9.44      35.68
C      30.07      10.59      36.27
C      29.18      11.38      35.50
C      28.87      11.02      34.17
C      29.50       9.89      33.60
C      31.03       7.95      33.70
C       0.22       7.60      34.01
C       0.86       6.50      33.40
C       0.20       5.77      32.38
C      31.02       6.11      32.04
C      30.36       7.15      32.74
C      30.31      36.88      35.22
C      30.98      36.41      36.38
C      30.34      35.50      37.27
C      29.02      35.08      36.99
C      28.32      35.59      35.87
C      28.99      36.45      34.98
C      30.95      37.76      34.29
C      31.43      39.02      34.70
C      31.99      39.92      33.77
C      32.09      39.54      32.41
C      31.59      38.30      31.98
C      31.04      37.40      32.92
C      14.24       8.44      19.26
C      14.90       8.91      18.10
C      14.27       9.82      17.21
C      12.95      10.24      17.48
C      12.25       9.73      18.60
C      12.92       8.87      19.50
C      14.88       7.56      20.18
C      15.36       6.30      19.77
C      15.92       5.40      20.71
C      16.02       5.78      22.06
C      15.52       7.02      22.50
C      14.97       7.92      21.55
C      18.27       8.98      35.01
C      17.49       9.45      36.10
C      18.06      10.28      37.10
C      19.42      10.65      37.00
C      20.22      10.14      35.95
C      19.64       9.33      34.97
C      17.72       8.19      33.95
C      17.01       7.00      34.20
C      16.69       6.09      33.16
C      17.05       6.42      31.82
C      17.75       7.61      31.54
C      18.06       8.48      32.61
C       2.20      36.34      19.47
C       1.42      35.87      18.38
C       1.98      35.03      17.38
C       3.35      34.67      17.48
C       4.15      35.17      18.52
C       3.57      35.99      19.50
C       1.65      37.13      20.53
C       0.93      38.32      20.28
C       0.62      39.23      21.32
C       0.98      38.90      22.66
C       1.68      37.70      22.93
C       1.99      36.83      21.87
C       1.50      30.01      47.45
C       1.16      30.63      46.21
C       1.94      31.67      45.64
C       3.04      32.17      46.37
C       3.40      31.58      47.60
C       2.64      30.52      48.12
C       0.69      28.95      48.02
C      32.08      28.08      47.20
C      31.24      27.08      47.74
C      31.17      26.91      49.14
C      31.94      27.73      50.00
C       0.59      28.75      49.43
C      17.57      15.31       7.03
C      17.24      14.69       8.27
C      18.02      13.65       8.84
C      19.12      13.15       8.11
C      19.48      13.74       6.88
C      18.71      14.81       6.36
C      16.77      16.37       6.46
C      16.00      17.24       7.27
C      15.17      18.24       6.74
C      15.09      18.41       5.34
C      15.87      17.60       4.48
C      16.67      16.57       5.05
C      14.33      15.30      47.30
C      14.58      14.94      45.95
C      14.00      13.79      45.36
C      13.12      13.00      46.13
C      12.82      13.35      47.46
C      13.45      14.47      48.04
C      14.97      16.42      47.94
C      16.31      16.77      47.64
C      16.95      17.88      48.24
C      16.28      18.60      49.26
C      14.95      18.25      49.60
C      14.30      17.21      48.91
C      30.40      30.02       7.17
C      30.66      30.38       8.52
C      30.08      31.53       9.12
C      29.20      32.33       8.35
C      28.90      31.97       7.02
C      29.53      30.85       6.44
C      31.05      28.90       6.54
C       0.24      28.55       6.84
C       0.87      27.44       6.23
C       0.20      26.73       5.21
C      31.02      27.07       4.87
C      30.38      28.11       5.57
C      30.32      15.96       8.07
C      30.97      15.53       9.25
C      30.33      14.65      10.16
C      28.99      14.25       9.90
C      28.32      14.72       8.75
C      29.00      15.53       7.83
C      30.96      16.83       7.13
C      31.44      18.10       7.54
C      32.00      19.00       6.59
C      32.11      18.60       5.24
C      31.60      17.35       4.81
C      31.05      16.47       5.77
C      14.25      29.36      46.41
C      14.90      29.80      45.24
C      14.25      30.67      44.32
C      12.92      31.07      44.58
C      12.24      30.61      45.73
C      12.92      29.79      46.65
C      14.89      28.49      47.35
C      15.37      27.22      46.95
C      15.93      26.33      47.89
C      16.03      26.72      49.24
C      15.53      27.97      49.67
C      14.98      28.86      48.72
C      18.27      29.93       7.86
C      17.51      30.35       8.97
C      18.10      31.14      10.00
C      19.47      31.49       9.91
C      20.25      31.04       8.83
C      19.65      30.28       7.81
C      17.72      29.16       6.78
C      17.01      27.96       7.02
C      16.70      27.07       5.96
C      17.04      27.42       4.63
C      17.73      28.62       4.37
C      18.05      29.48       5.44
C       2.20      15.40      46.62
C       1.44      14.97      45.50
C       2.02      14.18      44.48
C       3.39      13.83      44.56
C       4.18      14.28      45.65
C       3.57      15.05      46.66
C       1.64      16.16      47.69
C       0.94      17.36      47.46
C       0.62      18.25      48.52
C       0.97      17.90      49.85
C       1.66      16.69      50.11
C       1.97      15.84      49.03
C      32.00       6.59      26.44
C      31.56       7.52      27.43
C      31.02       7.03      28.67
C      30.95       5.63      28.93
C      31.43       4.74      27.95
C      31.95       5.21      26.73
C      30.57       9.27      29.37
C      31.11       9.76      28.17
C       0.29       6.99      25.19
C      30.21       5.09      29.99
C      15.93      38.73      28.04
C      15.49      37.80      27.04
C      14.95      38.30      25.81
C      14.87      39.69      25.55
C      15.36      40.58      26.53
C      15.88      40.11      27.75
C      14.50      36.06      25.11
C      15.04      35.56      26.30
C      16.36      38.33      29.29
C      14.15      40.23      24.49
C      31.76      38.17      28.44
C      31.86      36.87      27.87
C       0.54      36.68      26.72
C       1.25      37.75      26.14
C       1.12      39.04      26.70
C       0.29      39.25      27.82
C       0.06      34.34      26.77
C      31.38      34.52      27.89
C      31.19      38.43      29.67
C       2.33      37.51      25.32
C      15.69       7.14      26.04
C      15.79       8.45      26.60
C      16.61       8.64      27.75
C      17.32       7.56      28.34
C      17.18       6.28      27.78
C      16.36       6.07      26.66
C      16.14      10.98      27.70
C      15.32      10.80      26.58
C      15.11       6.89      24.80
C      18.41       7.80      29.16
C      31.98      27.54      53.63
C      31.55      28.47       0.26
C      31.01      27.98       1.50
C      30.94      26.59       1.77
C      31.42      25.70       0.78
C      31.94      26.16      53.92
C      30.56      30.22       2.20
C      31.10      30.71       1.00
C       0.27      27.94      52.37
C      30.21      26.05       2.83
C      15.91      17.78       0.85
C      15.47      16.85      54.22
C      14.94      17.34      52.98
C      14.87      18.73      52.71
C      15.34      19.63      53.70
C      15.86      19.16       0.56
C      14.49      15.10      52.28
C      15.02      14.61      53.48
C      16.35      17.38       2.11
C      14.14      19.27      51.65
C      31.78      17.20       1.28
C      31.84      15.89       0.72
C       0.51      15.67      53.92
C       1.24      16.73      53.33
C       1.14      18.02      53.89
C       0.33      18.26       0.65
C      32.12      13.35      53.98
C      31.31      13.56       0.75
C      31.21      17.48       2.51
C       2.31      16.46      52.50
C      15.70      28.12      53.21
C      15.77      29.43      53.77
C      16.59      29.65       0.56
C      17.31      28.58       1.15
C      17.21      27.29       0.59
C      16.40      27.06      53.83
C      16.05      31.97       0.51
C      15.24      31.77      53.74
C      15.13      27.85      51.97
C      18.39      28.85       1.98
C       0.73      11.85      15.23
C      32.14      13.07      15.29
C      31.91      13.81      14.09
C       0.24      13.34      12.83
C       0.98      12.14      12.80
C       1.21      11.40      13.98
C      30.71      15.47      15.32
C      30.92      14.75      16.50
C       0.92      11.02      16.33
C      32.12      13.99      11.64
C      16.80      33.47      39.25
C      16.07      32.25      39.19
C      15.83      31.52      40.40
C      16.31      31.99      41.65
C      17.05      33.19      41.68
C      17.28      33.93      40.50
C      14.64      29.85      39.17
C      14.85      30.57      37.98
C      16.99      34.30      38.15
C      16.05      31.34      42.85
C      15.33      33.86      14.95
C      15.99      32.60      15.00
C      16.25      31.90      13.79
C      15.87      32.43      12.53
C      15.20      33.68      12.50
C      14.94      34.38      13.69
C      17.29      30.13      15.02
C      17.06      30.82      16.22
C      15.12      34.65      16.07
C      16.19      31.82      11.33
C      31.40      11.46      39.53
C      32.07      12.72      39.47
C       0.18      13.43      40.69
C      31.94      12.89      41.95
C      31.27      11.65      41.97
C      31.02      10.94      40.79
C       1.22      15.19      39.46
C       0.99      14.50      38.26
C      31.19      10.67      38.41
C       0.12      13.51      43.15
C       0.21      34.28      40.02
C       0.48      32.90      39.86
C       0.75      32.10      41.02
C       0.76      32.66      42.32
C       0.51      34.05      42.45
C       0.24      34.84      41.32
C       1.01      30.17      39.63
C       0.76      30.94      38.49
C      32.04      35.12      38.96
C       0.96      31.87      43.45
C      16.29      11.04      14.45
C      16.56      12.42      14.61
C      16.83      13.22      13.46
C      16.84      12.66      12.15
C      16.59      11.27      12.03
C      16.32      10.48      13.16
C      17.09      15.15      14.85
C      16.84      14.38      15.99
C      15.97      10.20      15.52
C      17.04      13.45      11.02
C      15.82      11.47      39.67
C      15.61      12.88      39.56
C      15.32      13.64      40.73
C      15.23      13.02      42.01
C      15.42      11.63      42.09
C      15.71      10.86      40.94
C      15.19      15.63      39.41
C      15.47      14.89      38.25
C      16.20      10.68      38.60
C      15.03      13.78      43.16
C      31.90      33.85      14.80
C      31.68      32.44      14.92
C      31.39      31.68      13.75
C      31.30      32.30      12.47
C      31.50      33.69      12.39
C      31.79      34.46      13.54
C      31.26      29.69      15.07
C      31.54      30.43      16.22
C       0.12      34.64      15.88
C      31.11      31.54      11.31
C      30.64       3.24      19.80
C      29.88       2.17      20.35
C      30.48       0.88      20.49
C      31.82       0.65      20.10
C       0.42       1.74      19.59
C      31.99       3.01      19.44
C      28.41       0.02      21.34
C      27.82       1.28      21.22
C      30.04       4.42      19.39
C       0.28      41.26      20.13
C      14.56       0.22      34.68
C      13.80       1.29      34.13
C      14.40       2.58      33.99
C      15.74       2.81      34.38
C      16.49       1.72      34.89
C      15.91       0.45      35.04
C      12.34       3.44      33.14
C      11.75       2.18      33.26
C      13.97      40.90      35.09
C      16.35       4.06      34.35
C      18.22      41.43      20.07
C      18.88       0.73      20.58
C      18.32       2.02      20.32
C      17.11       2.17      19.60
C      16.48       1.01      19.09
C      17.03      41.60      19.31
C      20.13       3.05      21.51
C      20.67       1.79      21.78
C      18.76      40.16      20.23
C      16.50       3.41      19.41
C       2.14       3.89      34.41
C       2.80       2.73      33.90
C       2.24       1.44      34.15
C       1.03       1.29      34.88
C       0.41       2.45      35.39
C       0.95       3.72      35.16
C       4.05       0.42      32.97
C       4.60       1.68      32.70
C       2.68       5.16      34.25
C       0.42       0.05      35.07
C      30.66      24.14      47.01
C      29.89      23.06      47.54
C      30.50      21.78      47.70
C      31.85      21.56      47.33
C       0.45      22.65      46.83
C      32.01      23.92      46.67
C      28.43      20.90      48.52
C      27.83      22.17      48.39
C      30.06      25.31      46.58
C       0.31      20.31      47.36
C      14.58      21.19       7.47
C      13.81      22.26       6.94
C      14.42      23.54       6.78
C      15.77      23.77       7.15
C      16.52      22.67       7.65
C      15.93      21.41       7.81
C      12.35      24.42       5.96
C      11.75      23.16       6.09
C      13.98      20.01       7.90
C      16.38      25.02       7.12
C      18.22      20.50      47.25
C      18.88      21.65      47.77
C      18.32      22.94      47.52
C      17.11      23.10      46.79
C      16.48      21.94      46.28
C      17.03      20.66      46.50
C      20.13      23.96      48.71
C      20.67      22.70      48.97
C      18.76      19.23      47.40
C      16.50      24.33      46.60
C       2.15      24.83       7.22
C       2.81      23.67       6.72
C       2.25      22.38       6.96
C       1.04      22.23       7.69
C       0.41      23.39       8.20
C       0.96      24.66       7.98
C       4.06      21.36       5.78
C       4.60      22.62       5.51
C       2.69      26.10       7.07
C       0.43      20.99       7.88
C       6.46      11.26      20.33
C       7.40      12.25      19.91
C       8.55      11.86      19.17
C       8.77      10.50      18.83
C       7.80       9.54      19.20
C       6.67       9.92      19.95
C       9.32      14.12      19.13
C       8.18      14.52      19.85
C       5.51      11.54      21.30
C       9.94      10.08      18.24
C      22.53      34.06      34.15
C      23.47      33.07      34.57
C      24.62      33.46      35.31
C      24.84      34.82      35.65
C      23.87      35.78      35.28
C      22.74      35.40      34.53
C      25.39      31.20      35.36
C      24.25      30.80      34.64
C      21.58      33.78      33.18
C      26.01      35.25      36.24
C       9.86      33.48      20.15
C       8.98      32.49      19.62
C       7.85      32.90      18.85
C       7.61      34.27      18.59
C       8.51      35.24      19.09
C       9.61      34.85      19.86
C       7.15      30.63      18.64
C       8.27      30.21      19.38
C      10.84      33.16      21.08
C       6.44      34.69      18.00
C      25.94      11.84      34.33
C      25.05      12.83      34.86
C      23.92      12.42      35.62
C      23.68      11.05      35.89
C      24.58      10.08      35.39
C      25.69      10.48      34.61
C      23.22      14.69      35.84
C      24.33      15.11      35.10
C      26.92      12.17      33.40
C      22.51      10.63      36.48
C       6.46      32.16      47.47
C       7.40      33.14      47.05
C       8.55      32.73      46.30
C       8.75      31.37      45.97
C       7.78      30.42      46.34
C       6.65      30.81      47.09
C       9.33      34.99      46.25
C       8.20      35.40      46.97
C       5.51      32.45      48.44
C       9.92      30.94      45.38
C      22.54      13.17       7.01
C      23.48      12.18       7.43
C      24.62      12.59       8.18
C      24.83      13.95       8.51
C      23.86      14.90       8.14
C      22.73      14.52       7.39
C      25.41      10.33       8.23
C      24.28       9.92       7.51
C      21.59      12.88       6.04
C      26.00      14.38       9.11
C       9.88      12.56      47.29
C       8.99      11.58      46.76
C       7.86      12.01      45.99
C       7.64      13.38      45.73
C       8.54      14.33      46.24
C       9.64      13.93      47.02
C       7.14       9.74      45.75
C       8.25       9.31      46.49
C      10.85      12.21      48.22
C       6.47      13.82      45.13
C      25.95      32.76       7.18
C      25.06      33.74       7.72
C      23.94      33.31       8.49
C      23.71      31.94       8.75
C      24.62      30.99       8.24
C      25.72      31.39       7.46
C      23.22      35.58       8.73
C      24.32      36.01       7.99
C      26.93      33.11       6.25
C      22.54      31.50       9.34
N      31.82       6.59      24.13
N      30.37       5.62      19.73
N       4.26      11.24      21.28
N       1.62      11.39      17.34
N      15.75      38.73      30.35
N      14.29      39.70      34.75
N      20.33      34.07      33.20
N      17.69      33.93      37.14
N      14.22      39.98      23.23
N      18.17      39.10      20.65
N      12.07      33.55      21.10
N      14.34      34.26      17.01
N      30.28       5.34      31.25
N       2.09       6.22      33.83
N      28.14      11.78      33.37
N      30.41      11.07      37.47
N      31.76      37.93      30.71
N       0.32      41.12      34.07
N      27.09      35.21      35.55
N      30.95      34.93      38.31
N      15.69       7.39      23.76
N      16.40       4.20      20.41
N      11.02      10.11      18.93
N      14.88      10.39      16.17
N      18.44       7.82      30.44
N      16.17       4.89      33.38
N      21.47      10.52      35.73
N      17.36      10.84      38.09
N       2.37      37.50      24.04
N       0.10      40.43      21.10
N       5.40      34.80      18.75
N       1.29      34.48      16.39
N      31.81      27.53      51.31
N      30.37      26.51      46.91
N       4.26      32.16      48.43
N       1.63      32.27      44.48
N      15.73      17.79       3.17
N      14.30      18.81       7.57
N      20.34      13.17       6.05
N      17.70      13.05      10.00
N      14.21      19.02      50.39
N      18.17      18.16      47.82
N      12.08      12.59      48.25
N      14.32      13.34      44.15
N      30.29      26.30       4.09
N       2.10      27.16       6.65
N      28.15      32.73       6.23
N      30.40      31.98      10.33
N      31.77      16.98       3.55
N       0.33      20.19       6.89
N      27.09      14.33       8.43
N      30.91      14.16      11.26
N      15.70      28.35      50.93
N      16.40      25.13      47.60
N      11.01      30.99      46.05
N      14.83      31.17      43.23
N      18.41      28.86       3.26
N      16.17      25.86       6.17
N      21.50      31.41       8.60
N      17.43      31.62      11.05
N       2.34      16.46      51.22
N       0.10      19.46      48.31
N       5.43      13.91      45.88
N       1.36      13.71      43.43
N      30.54       7.93      29.56
N      31.57       8.88      27.24
N      14.47      37.40      24.91
N      15.50      36.44      27.23
N       0.68      35.41      26.23
N      31.24      35.77      28.40
N      16.76       9.91      28.24
N      15.17       9.55      26.07
N      30.54      28.88       2.39
N      31.56      29.83       0.07
N      14.47      16.44      52.09
N      15.49      15.49       0.05
N       0.62      14.41      53.44
N      31.20      14.81       1.26
N      16.69      30.91       1.05
N      15.12      30.51      53.23
N      31.21      14.97      14.16
N      31.62      13.58      16.45
N      15.13      30.36      40.32
N      15.55      31.74      38.03
N      16.89      30.70      13.86
N      16.43      32.03      16.17
N       0.82      14.63      40.62
N       0.35      13.30      38.30
N       1.00      30.77      40.84
N       0.50      32.27      38.64
N      17.08      14.55      13.64
N      16.58      13.05      15.84
N      15.12      14.98      40.59
N      15.67      13.55      38.36
N      31.20      30.34      13.88
N      31.74      31.77      16.12
N      29.71      41.73      20.97
N      28.56       2.31      20.73
N      13.63       3.59      33.51
N      12.48       1.15      33.75
N      18.98       3.11      20.80
N      20.04       0.68      21.31
N       2.90       0.35      33.68
N       3.96       2.79      33.16
N      29.73      20.76      48.17
N      28.57      23.20      47.91
N      13.65      24.56       6.31
N      12.50      22.12       6.57
N      18.98      24.03      48.00
N      20.04      21.60      48.50
N       2.91      21.29       6.49
N       3.97      23.73       5.98
N       9.45      12.81      18.82
N       7.27      13.59      20.22
N      25.52      32.51      35.67
N      23.34      31.73      34.27
N       6.99      31.95      18.41
N       9.14      31.15      19.84
N      23.06      13.37      36.07
N      25.21      14.18      34.64
N       9.46      33.68      45.95
N       7.28      34.48      47.35
N      25.53      11.64       8.54
N      23.36      10.85       7.13
N       6.99      11.07      45.53
N       9.13      10.23      46.97
N      23.07      34.25       8.95
N      25.20      35.09       7.51
O       3.75      12.34      18.75
O      30.32       5.06      22.47
O      19.82      32.98      35.73
O      14.25      40.27      32.00
O      12.57      32.81      18.45
O      16.88      40.61      22.71
O      28.64      12.51      36.03
O       0.80       4.72      31.77
O      28.40      34.19      37.82
O       0.52      40.39      31.51
O      12.33      11.14      16.66
O      16.59       4.92      22.97
O      19.96      11.51      37.91
O      16.88       5.50      30.83
O       3.89      33.81      16.57
O       0.81      39.82      23.65
O       3.76      33.23      45.89
O      30.33      25.97      49.66
O      19.83      12.10       8.59
O      14.25      19.35       4.82
O      12.57      11.87      45.59
O      16.87      19.66      49.88
O      28.64      33.45       8.89
O       0.80      25.67       4.60
O      28.36      13.41      10.77
O       0.53      19.45       4.33
O      12.28      31.91      43.72
O      16.60      25.88      50.15
O      20.03      32.29      10.87
O      16.87      26.52       3.63
O       3.96      13.04      43.61
O       0.79      18.80      50.85
O      31.14      11.09      27.95
O      15.07      34.23      26.53
O      30.75      33.46      28.44
O      14.69      11.86      26.02
O      31.13      32.04       0.77
O      15.06      13.28      53.71
O      30.66      12.51       1.32
O      14.59      32.81      53.17
O      30.43      15.22      17.67
O      14.36      30.10      36.81
O      17.46      30.29      17.39
O       1.39      15.03      37.09
O       0.77      30.37      37.27
O      16.85      14.95      17.21
O      15.54      15.51      37.05
O      31.61      29.81      17.42
O      26.53       1.46      21.58
O      10.46       2.00      32.89
O      21.82       1.68      22.49
O       5.74       1.78      31.98
O      26.54      22.34      48.74
O      10.46      22.98       5.74
O      21.82      22.60      49.69
O       5.75      22.72       4.80
O       8.01      15.83      20.16
O      24.08      29.49      34.32
O       8.46      28.90      19.62
O      24.52      16.43      34.86
O       8.04      36.71      47.29
O      24.12       8.61       7.19
O       8.43       7.99      46.73
O      24.50      37.33       7.75
