10

H      -1.07       4.69       0.87
H       1.81       3.56       0.88
O      -0.11       7.05       0.75
O       1.93       6.13       0.83
O       0.85       1.18       0.74
O      -1.19       2.11       0.83
C       0.66       6.02       0.82
C       0.01       4.69       0.88
C       0.07       2.21       0.82
C       0.72       3.55       0.88
