10

O       5.12       0.81       7.92
O       3.43       2.27       8.00
H       3.37      -1.06       8.04
O      -0.61      -0.77       7.92
H       1.14       1.09       8.04
O       1.07      -2.25       8.00
C       3.86       1.08       7.99
C       2.92      -0.07       8.04
C       0.65      -1.05       7.99
C       1.59       0.09       8.05
