30

O       5.01       6.54      10.22
O       6.60       5.05      10.69
Gd      11.92       6.61       5.72
Gd       7.13       6.55       8.90
O       9.13       6.52      10.35
O       7.55       8.04      10.76
C       9.38       4.46       7.12
C       4.91       8.70       7.13
C      14.33       7.98       2.45
C       9.64       5.23       2.36
C      13.57       7.52       3.66
C      10.38       5.70       3.57
C       9.69       8.70       7.51
C       4.59       4.46       7.49
C       4.73       5.17      12.17
C       9.42       7.94      12.25
C       5.47       5.62      10.95
C       8.66       7.47      11.05
O      10.41       5.12       6.78
O       8.49       4.92       7.90
O       3.81       8.11       6.90
O       5.86       8.18       7.78
O      14.03       6.58       4.39
O      12.46       8.11       3.92
O       9.90       6.65       4.27
O      11.49       5.13       3.86
O       8.66       8.04       7.85
O      10.56       8.25       6.71
O       5.68       5.05       7.71
O       3.63       4.99       6.83
