30

Gd       2.39       0.03       1.59
Gd       7.17      -0.03      -1.59
O       3.73       1.66       0.60
O       5.66       1.47      -0.51
O      -0.94      -1.52      -0.41
O       1.11      -1.60       0.47
C      -0.02       1.40       4.87
C       4.69      -1.35       4.95
C       0.72       0.95       3.65
C       3.95      -0.88       3.74
C       4.93      -2.12       0.20
C      -0.17       2.12       0.18
C       9.57      -1.39      -4.86
C       4.88       1.35      -4.95
C       8.82      -0.94      -3.65
C       5.63       0.88      -3.74
C       4.63       2.12      -0.18
C       0.16      -2.12      -0.19
O       0.26       0.01       2.92
O       1.84       1.52       3.39
O       4.43       0.07       3.04
O       2.84      -1.45       3.45
O       3.90      -1.46       0.53
O       5.82      -1.67      -0.60
O       0.93       1.53       0.41
O      -1.12       1.60      -0.47
O       9.27      -0.00      -2.92
O       7.70      -1.53      -3.39
O       5.15      -0.07      -3.04
O       6.74       1.46      -3.45
