18

C       4.94       4.56       2.29
C       4.45       3.82       3.37
C       5.14       3.88       4.58
C       6.26       4.75       4.76
C       6.82       5.35       3.62
C       6.18       5.28       2.37
O       4.81       4.35      -0.30
O       3.77       6.31       0.79
H       3.55       3.22       3.26
H       7.72       5.96       3.71
S       3.94       4.83       0.88
S       4.63       3.01       5.99
O       2.71       4.06       0.99
O       3.49       2.14       5.64
O       5.81       2.31       6.57
O       4.09       4.06       6.98
O       6.65       5.92       1.31
O       6.73       4.94       5.99
