60

O      12.55      32.07      11.72
O      10.63      31.56      10.76
C      12.18      23.78       4.01
C      12.44      23.90       2.64
C      13.37      24.86       2.19
C      14.05      25.66       3.11
C      13.83      25.50       4.49
C      12.87      24.58       4.93
O      18.39      21.75       1.32
O      20.07      23.19       1.37
O      12.36      21.98       1.27
H      17.82      26.70       6.59
H      12.92      27.30       6.23
O      10.62      23.36       1.23
F      12.30      27.15       8.67
F      10.90      28.85      10.24
F      15.38      30.70       7.64
F      14.22      32.24       9.54
C      17.25      23.06       3.64
C      18.20      23.64       2.77
C      18.45      25.02       2.86
C      17.76      25.81       3.78
C      16.80      25.23       4.63
C      16.56      23.85       4.56
F      15.80      27.64      10.23
F      17.14      29.33      11.88
F      18.21      29.39       6.47
F      19.57      31.06       8.10
C      17.41      29.36      10.55
C      18.37      30.26      10.03
C      18.66      30.21       8.65
C      17.96      29.34       7.81
C      16.96      28.50       8.32
C      16.72      28.48       9.71
C      18.97      31.30      10.89
C      11.89      31.42      10.85
F      15.68      23.26       5.41
F      17.00      21.72       3.60
F      17.99      27.15       3.81
F      19.34      25.62       2.03
C      18.92      22.81       1.78
C      11.77      23.03       1.67
C      12.04      29.29       9.65
C      12.56      30.56       9.96
C      13.74      30.99       9.33
C      14.37      30.17       8.38
C      13.93      28.85       8.18
C      12.75      28.42       8.82
C      16.11      27.73       7.39
C      14.70      27.90       7.29
C      13.99      27.16       6.33
C      14.64      26.26       5.47
C      16.04      26.10       5.56
C      16.75      26.83       6.52
O      18.38      31.64      11.96
F      14.93      26.59       2.65
O      20.05      31.88      10.54
F      12.64      24.41       6.26
F      11.28      22.87       4.45
F      13.62      25.00       0.86
