60

F      20.82       6.02      16.23
F      19.64       4.01      14.80
F      25.09       3.92      15.65
F      23.93       1.95      14.19
O      21.74       1.40      22.21
F      25.71      10.64      16.95
F      27.66      11.95      15.60
F      27.11       6.50      14.98
F      28.93       7.80      13.49
C      23.61       6.06      18.17
C      23.63       6.06      16.76
C      24.47       6.95      16.09
C      25.36       7.79      16.79
C      25.32       7.79      18.21
C      24.42       6.95      18.88
C      20.98       3.97      15.02
C      21.76       2.94      14.46
C      23.15       2.94      14.69
C      23.75       3.95      15.44
C      22.97       4.99      15.98
C      21.71       2.92      20.40
C      21.58       5.00      15.76
C      20.96       4.04      19.99
H      24.44       6.91      19.96
C      21.58       5.07      19.27
C      22.93       4.98      18.93
C      23.68       3.86      19.32
C      26.33       8.50      19.02
C      27.62       7.96      19.16
C      25.99       9.68      19.70
C      29.28      10.55      21.34
C      29.31      10.60      13.72
C      21.16       1.89      13.62
C      27.54      10.60      15.44
C      28.35       9.92      14.50
C      28.16       8.52      14.34
C      27.21       7.84      15.11
C      26.39       8.53      16.02
C      26.55       9.92      16.16
C      21.10       1.86      21.21
O      29.57      11.73      20.98
O      29.88      10.00      22.31
F      24.99       3.75      18.99
F      23.82       1.76      20.43
F      20.86       6.18      18.95
O      29.74      11.74      14.07
O      29.77      10.05      12.67
F      19.66       4.15      20.33
H      24.50       6.93      15.01
O      20.00       1.44      13.88
C      26.95      10.35      20.46
F      24.74      10.19      19.60
O      21.82       1.44      12.64
C      28.25       9.81      20.60
F      26.62      11.51      21.08
C      28.57       8.60      19.96
F      27.95       6.80      18.54
O      19.96       1.40      20.91
F      29.81       8.07      20.09
C      23.08       2.84      20.06
