60

O      11.02       1.33      14.01
F       5.46       3.42      19.61
F       6.80       1.58      21.09
F       9.60       5.57      18.52
F      10.96       3.70      19.94
F       2.36       7.72      17.44
F       0.78       9.50      18.73
F       5.92       8.68      20.53
F       4.17      10.07      22.07
O       9.19       1.12      12.78
C       9.61       3.61      19.86
C       5.36       7.45      16.72
C       5.16       7.34      18.13
C       5.88       6.37      18.84
C       6.78       5.51      18.21
C       6.98       5.62      16.82
C       6.29       6.59      16.10
C       7.83       2.38      15.07
C       9.12       2.65      14.58
C       2.04       9.29      19.18
H       6.42       6.65      15.02
H       5.72       6.25      19.91
C       9.02       4.87      15.56
F       5.22      10.32      16.94
F       3.43      11.78      15.50
C       7.50       2.56      20.46
F       2.03       7.77      13.22
C       3.51      10.44      15.28
F       3.78       6.34      14.68
C       8.91       2.60      20.54
C       3.73       7.68      14.86
C       9.72       3.89      14.85
C       1.64      10.57      13.59
C       2.68       9.81      14.33
C       2.82       8.43      14.11
C       1.56      10.55      21.19
C       4.52       8.30      15.85
C       8.91       4.57      19.11
C       7.51       4.51      19.01
C       6.81       3.50      19.69
C       4.43       9.69      16.03
C       2.45       9.83      20.41
C       3.74       9.55      20.89
C       7.15       3.34      15.82
C       4.21       8.22      18.89
C       2.88       8.42      18.48
C       9.64       1.60      21.34
C       9.81       1.65      13.75
O       0.88      11.50      20.68
O       1.40      10.24      22.41
O       1.20      11.67      14.04
F       5.91       3.06      16.29
F       7.23       1.19      14.83
F       9.58       6.09      15.76
F      10.95       4.18      14.36
O       1.17      10.08      12.51
C       7.74       4.59      16.07
O      10.79       1.21      20.96
C       4.64       8.81      20.10
O       9.13       1.15      22.41
