60

O      18.39      21.77      33.54
O      20.03      23.25      33.62
H      13.03      26.96      28.34
C      18.24      23.19      30.77
O      12.33      21.89      33.51
O      10.66      23.34      33.48
C      16.95      25.58      31.48
C      13.29      23.07      31.06
C      17.62      24.83      32.45
C      12.43      25.13      32.02
C      13.16      25.87      31.09
C      13.96      25.22      30.13
C      14.00      23.82      30.11
C      18.26      23.63      32.10
H      17.97      26.56      28.15
F      15.84      27.58      24.46
F      17.02      29.42      22.88
C      16.92      25.13      30.14
C      17.59      23.95      29.79
C      12.50      23.73      32.03
F      19.71      30.86      26.63
F      18.39      29.14      28.21
F      12.77      26.83      25.59
F      11.39      28.58      24.03
F      15.26      30.48      27.47
F      13.95      32.21      25.82
C      11.92      31.35      24.05
C      12.36      29.05      24.86
C      12.66      30.41      24.89
C      13.66      30.89      25.76
C      14.34      30.00      26.59
C      14.07      28.62      26.54
C      18.95      31.24      23.92
F      14.70      23.16      29.15
F      13.34      21.72      31.01
F      13.12      27.23      31.14
F      11.70      25.79      32.96
C      13.06      28.15      25.67
C      18.93      22.84      33.13
C      11.79      22.94      33.05
C      18.76      30.07      26.06
C      18.38      30.23      24.71
C      17.38      29.37      24.19
C      16.75      28.42      25.01
C      17.05      28.36      26.38
C      18.08      29.17      26.89
F      17.64      25.27      33.73
C      16.23      27.53      27.30
C      14.82      27.66      27.38
C      14.11      26.87      28.29
C      14.76      26.01      29.17
C      16.17      25.91      29.13
C      16.89      26.64      28.18
O      12.47      31.86      23.03
F      17.58      23.52      28.50
F      18.86      22.04      30.42
F      16.33      26.73      31.83
O      10.73      31.66      24.38
O      18.37      31.61      22.85
O      20.03      31.80      24.28
