60

O      12.54       1.48      12.05
O      10.84       1.26      10.67
C      17.49       9.92       3.59
C      18.37       9.29       2.69
C      18.55       7.90       2.78
C      17.81       7.14       3.70
C      16.93       7.77       4.59
C      16.82       9.17       4.57
O      12.39      11.21       1.33
O      10.77       9.72       1.20
F      18.53       6.05       8.75
F      19.97       4.31      10.25
H      12.96       6.47       6.71
F      16.65       0.93       9.53
F      15.45       2.51       7.70
O      18.58      11.17       1.34
H      17.88       5.96       6.33
O      20.15       9.63       1.23
C      13.00       8.04       2.45
C      12.52       9.33       2.75
C      12.70       9.85       4.04
C      13.38       9.10       5.01
C      13.95       7.86       4.68
C      13.74       7.33       3.40
C      19.01       1.73      10.80
F      12.60       3.81       6.60
F      11.28       2.11       8.23
F      15.05       5.54      10.34
F      13.76       3.81      11.99
C      11.92       1.84      11.00
C      12.18       2.96       8.78
C      12.50       2.90      10.15
C      13.46       3.80      10.67
C      14.13       4.69       9.82
C      18.82       3.88       9.67
C      12.86       3.85       7.93
C      17.12       2.19       9.34
F      14.24       6.11       3.07
C      18.32       2.60       9.96
F      12.78       7.50       1.23
F      13.50       9.60       6.27
F      12.21      11.07       4.36
C      11.86      10.13       1.71
C      13.87       4.69       8.44
C      16.89       4.36       8.25
C      16.47       3.03       8.43
C      18.09       4.77       8.87
C      19.06      10.05       1.72
O      18.37       1.07      11.68
F      16.12       9.82       5.52
F      17.33      11.27       3.60
F      17.94       5.79       3.70
F      19.38       7.24       1.92
O      20.26       1.58      10.67
C      14.73       7.09       5.67
C      16.14       6.97       5.57
C      16.81       6.08       6.43
C      16.11       5.31       7.39
C      14.70       5.48       7.50
C      14.04       6.37       6.64
