37

O       1.39       5.54      12.44
H       3.67       5.21      11.84
H       0.92       4.24       8.68
O      -0.14       5.02      10.85
H       5.14       4.06       7.94
H       6.40      -0.16      13.83
H       3.76      -0.13      10.44
H       4.53       2.12       9.82
H       5.75       7.53      10.24
H       6.45       6.87       8.74
H       7.52       7.60       9.97
O       5.06      -2.15      13.61
O       3.77      -2.24      11.73
H       7.21       2.13      13.22
C       6.48       3.60      11.18
C       6.80       5.68      10.47
C       4.55       4.67       9.93
O       3.83       3.45       6.08
C       3.50       4.94      10.81
C       2.18       4.81      10.34
C       1.93       4.39       9.03
C       3.00       4.13       8.17
O       1.61       3.14       6.48
C       4.32       4.30       8.61
C       1.06       5.14      11.29
C       2.75       3.54       6.80
C       5.92       2.29      11.49
C       6.45       1.63      12.62
C       6.00       0.36      12.96
C       5.02      -0.27      12.18
C       4.50       0.38      11.06
C       4.94       1.65      10.71
C       4.59      -1.66      12.54
C       6.62       6.99       9.82
N       5.89       4.65      10.46
N       7.67       3.98      11.59
N       7.86       5.27      11.15
