9

C       4.49       5.32       1.74
Ag       2.50       4.10       4.10
N       3.61       4.70       2.24
N       3.61       3.50       5.97
N       1.40       5.97       4.70
N       1.39       2.23       3.51
C       4.49       2.88       6.46
C       0.52       6.46       5.32
C       0.52       1.75       2.89
