26

C       5.21       6.20       0.84
O       3.29       4.16      -3.18
C       4.98       6.33      -0.68
C       5.51       3.67       0.50
C       5.16       4.50       2.74
C       3.31       4.63       1.06
C       4.80       4.78       1.33
O       6.12       5.20       3.27
O       4.80       3.32       3.13
C       4.40       5.01      -1.26
C       5.42       3.91      -1.02
C       3.11       4.62      -0.47
O       4.25       6.25      -3.29
C       4.03       5.11      -2.71
H       6.25       6.45       1.09
H       4.59       6.96       1.38
H       2.74       5.45       1.54
H       4.31       7.18      -0.89
H       5.95       6.56      -1.18
H       6.52       3.59       0.86
H       6.40       4.21      -1.43
H       2.29       5.28      -0.75
H       2.87       3.57      -0.75
H       5.05       2.68       0.72
H       5.12       2.96      -1.53
H       2.94       3.67       1.48
