14

Cd       6.13       2.37      18.71
N       4.85       3.04      16.77
C       4.94       4.33      16.37
C       4.02       2.22      16.12
N       6.84       4.58      18.86
N       5.56       0.14      18.49
C       3.26       4.14      19.32
C       7.58       0.41      20.91
C       7.44       5.44      19.41
N       7.43       1.73      20.66
C       8.04       2.62      21.47
S       3.95       3.02      20.28
S       8.22       6.64      20.19
C       5.06      -0.68      17.79
