164

C      -0.29       5.09      11.96
C       5.37       4.66       6.75
C       4.16       6.07       8.41
C      -1.49       3.68      10.31
C       5.00       4.82       8.17
C      -0.66       4.93      10.54
C       4.61       5.07      10.75
C      -1.03       4.68       7.97
C       6.11       4.94      10.52
C       0.46       4.81       8.20
C       4.12       6.31       9.92
C      -1.52       3.44       8.79
C       8.97       0.05       8.59
C       3.32       9.70      10.13
C       6.69       1.24       8.88
C       1.04       8.51       9.83
C       1.22       8.64       8.32
C       6.87       1.12      10.40
C       7.52       0.18       8.07
C       1.87       9.57      10.65
C       5.30       6.28       0.90
C      -0.15       3.61      17.89
C       4.26       5.34      12.15
C      -1.38       4.41       6.56
C       5.21       6.27      18.11
C      -0.19       3.62       0.68
C       5.50       3.78       0.60
C      -0.41       6.18      18.14
C       3.33       4.80       1.15
C      -2.29       4.75      17.55
C       4.82       4.89       1.42
C      -0.80       4.91      17.32
C       4.42       5.06      17.53
C      -1.16       4.71       1.21
C       5.31       3.85      17.77
C      -0.50       6.05       0.96
C       3.10       4.76      18.32
C      -2.46       4.68       0.36
C       0.23       9.70       0.79
C       0.20       9.59      17.99
C       7.95       1.32       0.51
C       2.57       8.52      18.22
C       2.50       8.73       1.03
C       7.90       1.08      17.69
C       1.76       9.17      12.07
C       7.42       0.59       6.64
C       7.32       0.16       1.31
C       1.65       9.52      17.43
C      -0.40       5.07      15.89
C       5.23       4.71       2.85
C       4.12       5.33      16.08
C      -1.49       4.43       2.65
C       1.63       9.13      15.99
C       7.30       0.59       2.75
C       4.14       3.65       8.70
C      -1.51       6.11      10.01
C       3.99       3.74      10.22
C      -1.65       6.01       8.49
C       6.32       5.01       9.00
C       0.67       4.75       9.72
Cr       0.06       7.52      13.95
Cr       5.72       2.23       4.77
Cr       1.87       4.47      14.00
Cr       7.54       5.28       4.71
Cr       3.61       7.57      14.09
Cr       9.27       2.18       4.62
H       4.55       2.68       8.42
H      -1.11       7.07      10.30
H       4.87       7.11      10.12
H      -0.78       2.65       8.60
H       6.66       6.04       8.80
H       1.01       3.71       9.92
H       6.65       5.77      11.02
H       1.01       3.98       7.70
H       9.59       0.88       8.28
H       3.94       8.87      10.44
H       3.82       8.98       8.13
H       9.46       0.77      10.59
H       6.86       2.26       8.53
H       1.21       7.49      10.18
H       7.49       1.93      10.80
H       1.85       7.82       7.92
H       0.24       8.57       7.81
H       5.88       1.18      10.90
H       6.33       6.54       1.19
H       0.89       3.47      17.58
H       3.14       3.66       8.23
H      -2.52       6.09      10.47
H       4.67       7.07       1.34
H      -0.67       2.72      17.47
H       4.82       7.23      17.81
H      -0.47       2.58       0.95
H       6.25       6.27      17.71
H       0.81       3.77       1.12
H       6.52       3.93       0.86
H       0.55       6.59      17.84
H       6.30       3.98      17.28
H       0.49       6.10       1.44
H       2.95       3.85       1.58
H      -2.85       5.62      17.14
H       2.79       5.64       1.62
H       8.63       3.85      17.01
H       2.28       5.40      18.03
H       8.48       3.70       0.53
H       2.83       3.72      18.05
H       8.14       5.46       0.72
H       5.14       2.79       0.93
H      -1.17       6.94      17.87
H       2.95       3.63      10.52
H      -2.70       6.12       8.19
H       4.85       2.93      17.35
H      -1.15       6.84       1.40
H       5.14       0.66       1.10
H      -0.44       8.79      17.65
H      -0.14       8.75       1.21
H       5.34       0.69      17.60
H       7.30       2.12       0.75
H       2.44       7.49      17.90
H       3.51       8.88       1.48
H       8.93       1.15      17.28
H       3.60       8.81      17.95
H       8.98       1.51       0.85
H       4.49       2.88      10.70
H      -1.16       6.87       8.01
H       7.12       4.34       8.68
H       1.47       5.42      10.04
H       6.49       3.99      10.94
H       0.85       5.76       7.78
H       4.62       6.94       7.89
H      -1.04       2.81      10.82
H       3.14       5.95       8.00
H       8.78       3.80      10.71
H       3.15       6.68      10.25
H       8.80       3.07       8.45
H      -0.02       8.75      10.02
H       5.63       1.00       8.68
H       7.31       1.87      17.19
H       2.04       7.84       1.50
O       0.55       8.93      12.45
O       6.21       0.82       6.26
O       3.23       4.59      15.47
O      -2.40       5.16       3.25
O       4.55       6.48      15.64
O      -1.08       3.28       3.07
O       2.75       8.71      15.48
O       8.42       1.04       3.24
O       1.85       6.52      14.01
O       7.51       3.23       4.70
O      -0.49       6.25      12.51
O       5.17       3.50       6.21
O       0.49       4.16      12.42
O       6.15       5.59       6.29
O       3.31       4.61      12.65
O      -2.32       5.15       6.06
O       4.64       6.50      12.60
O      -1.00       3.26       6.11
O       2.84       8.73      12.66
O       8.50       1.02       6.06
O       0.46       8.91      15.49
O       6.13       0.84       3.22
O      -0.57       6.23      15.32
O       5.10       3.52       3.39
O       0.40       4.14      15.46
O       6.06       5.61       3.25
