20

H      13.20      16.67       5.34
H      13.26      14.38       5.31
H      12.93      10.01       5.17
H      12.96      12.31       5.14
H      11.04      16.67       8.54
H      10.97      14.38       8.56
H      11.31      10.01       8.70
H      11.28      12.31       8.74
C      12.75      16.21       6.00
C      12.79      14.82       5.98
C      12.59      10.47       5.91
C      12.61      11.86       5.87
C      11.48      16.21       7.87
C      11.45      14.82       7.89
C      11.65      10.47       7.97
C      11.62      11.86       8.00
C      12.12      14.09       6.94
C      12.12      12.58       6.94
N      12.12      16.91       6.94
N      12.12       9.78       6.94
