20

H       2.62      17.37       8.24
H       2.58      19.65       8.29
H       2.99      24.03       8.58
H       2.96      21.74       8.62
C       4.87      17.83       6.18
C       4.90      19.22       6.14
C       4.66      23.57       5.97
C       4.68      22.18       5.94
C       3.21      17.83       7.70
C       3.18      19.22       7.73
C       3.42      23.57       7.90
C       3.40      22.18       7.94
C       4.04      19.95       6.94
C       4.04      21.45       6.94
N       4.04      17.13       6.94
N       4.04      24.27       6.94
H       5.46      17.37       5.64
H       5.50      19.65       5.59
H       5.09      24.03       5.29
H       5.12      21.74       5.25
