15

O       9.18       9.77       5.36
C       9.97      12.44       2.98
C      10.01      11.22       3.66
C       9.20      10.96       4.90
H      10.78      13.55       1.31
N      10.78      10.21       3.24
O       8.57      11.96       5.38
H      12.24      11.61       0.56
H       9.32      13.23       3.36
O      12.99       9.23       0.66
O      12.38       8.15       2.56
C      10.78      12.61       1.85
C      11.59      11.55       1.43
C      11.55      10.35       2.15
C      12.37       9.14       1.76
