15

C       3.59      -4.70      11.85
C       2.83      -2.44      11.55
C       2.01      -1.23      11.94
C       2.78      -3.64      12.27
C       4.40      -4.53      10.72
C       4.36      -3.31      10.04
C       5.18      -3.04       8.80
H       3.59      -5.64      12.39
N       3.59      -2.30      10.46
O       1.38      -1.32      13.04
O       2.00      -0.24      11.15
O       5.80      -4.05       8.32
O       5.19      -1.86       8.34
H       2.14      -3.70      13.14
H       5.05      -5.32      10.34
