25

C       5.18      14.53       4.91
C       4.39      13.98       3.89
C       4.39      12.60       3.68
H       5.20      19.89       5.39
H       7.36      16.17       5.18
H       3.05      16.18       5.13
H       6.37      11.53       6.06
H       6.51      14.00       6.53
H       3.80      14.62       3.24
H       3.81      12.14       2.89
N       5.10      11.75       4.44
O       1.69      17.92       5.57
O       2.50      20.02       5.27
O       7.76      20.04       5.12
O       8.76      18.02       5.45
C       3.99      18.10       5.29
C       5.20      18.80       5.33
C       6.41      18.09       5.32
C       6.41      16.69       5.23
C       5.20      15.99       5.12
C       4.00      16.71       5.16
C       2.64      18.77       5.38
C       7.75      18.78       5.31
C       5.84      12.26       5.45
C       5.91      13.63       5.71
