25

C      -4.97      15.63      13.22
C      -4.97      14.23      13.05
C      -3.75      13.55      12.89
C      -2.88      20.03      12.95
C      -2.88      18.66      12.71
C      -3.77      17.82      13.41
C      -4.63      18.44      14.34
C      -4.56      19.82      14.53
C      -1.20      13.61      12.74
C      -6.30      13.53      13.08
N      -3.71      20.61      13.85
O      -0.24      14.46      12.64
O      -1.08      12.36      12.78
O      -7.32      14.30      13.10
O      -6.32      12.26      13.10
H      -1.63      16.20      12.97
H      -5.92      16.13      13.38
H      -3.73      12.47      12.79
H      -2.23      20.71      12.41
H      -2.20      18.25      11.97
H      -5.32      17.85      14.93
H      -5.21      20.32      15.25
C      -2.55      14.28      12.85
C      -2.58      15.67      12.99
C      -3.78      16.36      13.20
