25

N       1.70      16.25      13.49
H      -0.38      20.66      14.37
H       3.91      20.74      13.95
C       0.54      22.59      14.48
C       0.57      21.19      14.34
C       1.77      20.50      14.13
H       1.72      24.39      14.54
C       2.96      22.63      14.28
C       1.74      23.31      14.44
C       2.96      21.24      14.11
C       0.87      18.20      14.62
C       1.76      19.04      13.92
C       2.61      18.42      12.99
H       0.19      18.61      15.36
C      -0.81      23.25      14.59
C       4.29      23.33      14.25
C       0.87      16.83      14.38
C       2.55      17.05      12.80
O      -1.78      22.40      14.69
O      -0.93      24.51      14.55
O       5.31      22.56      14.23
O       4.31      24.61      14.23
H       0.21      16.15      14.92
H       3.31      19.01      12.40
H       3.19      16.54      12.08
