25

C       0.92       9.72       4.06
C       0.92      11.11       4.27
C      -0.27      11.81       4.49
C      -1.48      11.09       4.49
C      -1.49       9.71       4.28
C      -0.29       9.02       4.08
C       0.55      15.47       4.10
C       0.58      14.10       3.91
C      -0.26      13.27       4.68
C      -1.10      13.90       5.62
C      -1.06      15.28       5.75
C       2.25       9.06       3.77
C      -2.83       9.02       4.28
H       1.87      11.63       4.28
H      -2.42      11.61       4.63
H      -0.29       7.94       3.92
H       1.16      16.15       3.50
H       1.22      13.67       3.15
H      -1.75      13.31       6.26
H      -1.70      15.80       6.47
N      -0.26      16.06       5.00
O       3.16       9.90       3.41
O       2.39       7.81       3.86
O      -2.87       7.78       3.99
O      -3.83       9.76       4.56
