16

H       0.29       2.80       4.05
H       0.31       2.02       6.21
C      -1.68       3.35       2.39
C      -1.68       2.88       3.83
C      -1.68       1.89       6.44
H      -3.66       2.80       4.05
H      -3.68       2.02       6.21
C      -1.68       1.28       7.79
O      -0.59       3.52       1.80
O      -0.59       0.99       8.34
C      -0.51       2.64       4.48
C      -0.50       2.16       5.78
O      -2.77       3.52       1.80
C      -2.85       2.64       4.48
C      -2.86       2.16       5.78
O      -2.77       0.99       8.34
