16

O       2.77       1.95      11.10
O       2.77       4.48      17.63
H      -0.29       2.67      13.34
H      -0.31       3.45      15.50
H       3.66       2.67      13.34
H       3.68       3.45      15.50
C       1.68       2.12      11.68
C       1.68       2.59      13.13
C       1.68       3.58      15.73
C       1.68       4.19      17.08
O       0.59       1.95      11.10
C       0.51       2.83      13.78
C       0.50       3.31      15.07
O       0.59       4.48      17.63
C       2.85       2.83      13.78
C       2.86       3.31      15.07
