14

Cu       7.08      13.34       7.97
O       9.81      12.94       9.32
Cu       9.08      14.63       8.60
C       9.18      11.83       9.15
O       8.00      11.71       8.66
O       9.73      14.30       6.70
O       7.85      13.14       6.15
O       6.33      15.19       7.51
C       8.99      13.67       5.88
O       8.26      16.33       7.94
C       6.87      14.53      10.51
O       6.25      13.71       9.76
C       7.04      16.24       7.59
O       8.05      14.99      10.36
