10

O       6.25      17.32      14.84
O       8.34      20.10       7.23
C       7.40      17.60      14.25
C       7.19      19.82       7.82
C       7.24      19.33       9.20
C       7.35      18.08      12.87
C       7.28      18.94      10.35
C       7.31      18.48      11.71
O       8.59      17.47      14.79
O       6.00      19.95       7.27
