54

H       3.90       8.30       9.11
H       3.83      14.05      12.92
H       1.16       7.87      12.96
H       0.88       5.72      14.14
H       2.73       4.79      15.49
H       4.89       6.01      15.66
H       5.20       8.16      14.47
H       1.02      14.41       9.18
H       0.62      16.54       7.99
H       2.37      17.49       6.52
H       4.54      16.32       6.26
H       4.97      14.20       7.46
H       3.27      10.24       5.38
H       3.53      12.07      16.67
H       3.35       9.91      15.58
H       3.12      12.40       6.47
H       3.30       8.40      11.08
H       3.21      13.94      10.96
C       3.74      14.49      15.49
C       3.56       7.84       6.57
C       3.67      13.19      14.83
C       3.59       9.15       7.21
C       3.45      10.79      14.95
C       3.29      11.53       7.09
C       3.55      12.02      15.59
C       3.38      10.30       6.46
C       3.69      13.12      13.44
C       3.70       9.22       8.60
C       3.55      11.89      12.76
C       3.53      10.45       9.28
C       3.47      10.70      13.54
C       3.38      11.64       8.50
C       3.48      11.81      11.34
C       3.50      10.53      10.70
C       3.41       9.38      11.51
C       3.33      12.96      10.53
C       3.37       9.45      12.90
C       3.26      12.89       9.14
C       3.20       8.18      13.64
C       1.98       7.48      13.55
C       1.82       6.26      14.22
C       2.86       5.74      14.98
C       4.08       6.42      15.07
C       4.25       7.64      14.40
C       3.02      14.15       8.40
C       1.80      14.82       8.55
C       1.57      16.02       7.87
C       2.55      16.56       7.04
C       3.78      15.90       6.90
C       4.02      14.70       7.57
O       2.56      15.08      15.69
O       4.73       7.24       6.38
O       4.97      14.94      15.75
O       2.33       7.38       6.31
