88

H       4.41      18.70      23.31
H       5.66      21.61       4.01
H       4.46      19.02      20.89
H       5.44      21.34       6.42
H       6.01      16.53      16.72
H       6.29      23.83      10.69
H       7.56      17.05      12.55
H       7.23      23.37      15.05
H       9.68      19.10       3.26
H      10.51      18.96       4.88
H      11.43      19.45       3.42
H       8.40      21.23      24.48
H       9.38      21.35      22.95
H      10.15      20.83      24.48
H       9.94      19.86       7.47
H      10.03      21.54       7.66
H       9.01      20.56      20.34
H       9.14      18.88      20.13
H       5.88      16.51       9.61
H       6.72      15.56      10.93
H       7.12      15.29       9.21
H       5.14      23.85      17.70
H       6.14      24.83      16.53
H       6.28      25.11      18.29
H       6.47      15.82      14.00
H       5.28      16.83      13.26
H       6.32      24.56      13.45
H       5.08      23.49      14.00
C       6.48      18.85      25.08
C       7.88      21.42       2.47
C       7.47      19.59       8.74
C       6.68      20.81      18.82
C       7.07      21.93       8.97
C       6.43      18.46      18.53
C       6.42      21.25       5.97
C       5.38      19.10      21.45
C       6.55      21.40       4.59
C       5.36      18.92      22.83
C       8.94      21.02       4.76
C       7.76      19.32      22.92
C       8.82      20.92       6.16
C       7.77      19.45      21.51
C       7.54      21.01       6.77
C       6.57      19.37      20.78
C       7.00      20.51      10.94
C       6.58      19.89      16.56
C       7.31      19.39      10.13
C       6.72      21.01      17.41
C       7.45      18.12      10.73
C       6.90      22.28      16.84
C       6.87      21.78      10.35
C       6.43      18.61      17.13
C       7.80      21.28       3.95
C       6.54      19.03      23.59
C       6.57      18.89      14.31
C       6.60      21.49      13.17
C       6.68      21.33      14.58
C       6.86      19.06      12.92
C       6.60      20.04      15.15
C       6.81      20.35      12.35
C       6.24      17.63      14.90
C       6.32      22.74      12.52
C       6.23      17.50      16.29
C       6.50      22.87      11.14
C       7.29      17.99      12.12
C       6.94      22.42      15.44
C      10.45      19.54       3.93
C       9.22      20.77      23.88
C       6.84      16.07       9.94
C       6.13      24.32      17.52
N       7.38      20.84       8.19
N       6.56      19.55      19.34
N      10.00      20.77       6.96
N       9.03      19.64      20.84
N       5.72      16.52      14.16
N       5.63      23.82      13.18
O       5.27      18.72      25.62
O       9.09      21.54       1.93
O       7.64      18.83      25.73
O       6.72      21.43       1.81
O       7.69      18.53       7.92
O       6.76      21.87      19.65
O       6.30      17.23      19.08
O       6.97      23.15       8.40
O      10.20      20.90       4.19
O       8.95      19.41      23.61
O       7.87      17.03       9.99
O       7.18      23.39      17.63
