14

N       5.46       8.29       0.69
N       8.90       9.02      -0.70
C       6.49      10.47      -0.02
C       7.87       6.83       0.02
C       6.59       8.99       0.13
C       7.77       8.32      -0.14
O       7.64      11.12       0.02
O       6.72       6.19      -0.02
H       4.62       8.90       0.76
H       5.71       8.03       1.67
H       9.74       8.41      -0.77
H       8.64       9.28      -1.68
O       5.27      11.02      -0.11
O       9.09       6.29       0.11
