14

O       5.50       8.01      27.44
N       1.87       6.01      26.86
N       5.31       5.28      28.25
C       2.90       3.83      27.57
C       4.28       7.46      27.53
C       3.00       5.31      27.42
C       4.18       5.98      27.68
O       4.05       3.18      27.53
O       3.13       8.11      27.57
O       1.68       3.28      27.65
H       2.12       6.27      25.87
H       6.15       5.89      28.32
H       5.05       5.01      29.23
H       1.03       5.40      26.79
