66

Zn       3.12       9.30      12.26
Zn       3.72       3.14       1.24
Ni      -0.11      12.55       0.04
Ni       6.75       5.92      13.04
H       3.76       7.43       1.13
H       4.00       7.38       3.63
H       2.93       6.76       7.68
H       2.43       7.14      10.11
H       3.12       0.84      12.49
H       2.52       0.73      10.06
H       3.11       1.39       6.13
H       3.44       1.27       3.65
H       3.72       4.94      12.28
H       3.38       4.95       9.80
H       3.29       5.72       5.76
H       3.61       5.37       3.29
H       3.91      11.57       1.08
H       4.28      11.68       3.55
H       3.78      11.02       7.39
H       3.28      11.17       9.83
C       5.52      11.42      12.61
C       0.79      11.48      12.70
C       3.85       8.35       1.71
C       3.98       8.32       3.10
C       3.01       7.76       8.11
C       2.73       7.96       9.46
C       1.22       4.89       0.20
C       5.98       5.50       0.96
C       3.15       1.73      11.86
C       2.84       1.67      10.51
C       3.23       2.30       5.55
C       3.41       2.23       4.18
C       1.36       0.94       0.87
C       6.10       1.00       0.86
C       3.51       4.02      11.74
C       3.30       4.03      10.37
C       3.31       4.72       5.33
C       3.49       4.54       3.97
C       5.36       6.92      12.18
C       0.60       7.37      13.06
C       3.95      10.67       1.68
C       4.13      10.72       3.05
C       3.48      10.14       7.94
C       3.20      10.23       9.30
C       4.14       9.53       3.79
C       4.43       9.58       5.26
C       3.44       8.85       7.31
C       2.90       2.84       9.74
C       2.47       2.77       8.31
C       3.14       3.58       6.17
N       1.73      10.93      12.27
N       4.70      10.74      12.11
N       5.10       4.82       1.38
N       2.12       4.43       0.81
N       5.27       1.68       1.35
N       2.27       1.54       1.32
N       1.49       8.02      12.64
N       4.47       7.67      12.00
N       3.83       9.50       1.01
N       3.80       8.61       6.02
N       2.87       9.16      10.06
N       3.43       2.89      12.48
N       2.92       3.80       7.49
N       3.53       3.32       3.39
O       5.25      10.39       5.71
O       1.65       1.92       7.93
