76

Y       3.86       3.86       1.76
Y       6.51       6.51       8.79
Y       3.86       6.51      12.30
Y       6.51       3.86       5.27
H       4.36       0.33      12.54
H       6.00      10.05       5.51
H       0.33       6.01       9.02
H      10.04       4.37       1.99
H       4.36      10.05       1.52
H       6.00       0.33       8.55
H       0.33       4.37       5.04
H      10.04       6.01      12.07
H       5.18       4.05      10.55
H       5.18       6.32       3.52
H       4.05       5.19       7.03
H       6.32       5.19       0.00
C       4.74       2.28      11.68
C       4.72       0.88      11.67
C       4.32       3.07      12.87
C       5.63       8.09       4.65
C       5.65       9.50       4.64
C       6.04       7.30       5.84
C       2.28       5.64       8.16
C       0.88       5.65       8.16
C       3.06       6.04       9.36
C       8.09       4.74       1.13
C       9.49       4.72       1.13
C       7.30       4.33       2.33
C       4.74       8.09       2.39
C       4.72       9.50       2.39
C       4.32       7.30       1.19
C       5.63       2.28       9.42
C       5.65       0.88       9.42
C       6.04       3.07       8.22
C       2.28       4.74       5.90
C       0.88       4.72       5.90
C       3.06       4.33       4.70
C       8.09       5.64      12.93
C       9.49       5.65      12.93
C       7.30       6.04      11.73
C       5.18       2.97      10.55
C       5.18       0.18      10.55
C       5.18       9.06      10.55
C       5.18       7.41       3.52
C       5.18      10.19       3.52
C       5.18       1.31       3.52
C       2.97       5.19       7.03
C       0.18       5.19       7.03
C       9.06       5.19       7.03
C       7.40       5.19       0.00
C      10.18       5.19       0.00
C       1.31       5.19       0.00
O       4.18       2.49      13.99
O       4.17       4.33      12.73
O       6.03       8.48       9.79
O       6.19       7.89       6.96
O       6.20       6.04       5.70
O       4.34       1.89       2.76
O       2.48       6.19      10.48
O       4.33       6.20       9.24
O       8.48       4.32       6.29
O       7.89       4.18       3.45
O       6.04       4.18       2.21
O       1.89       6.05      13.32
O       4.18       7.89       0.07
O       4.17       6.04       1.33
O       6.03       1.89       4.27
O       6.19       2.49       7.10
O       6.20       4.33       8.36
O       4.34       8.48      11.30
O       2.48       4.18       3.58
O       4.33       4.18       4.82
O       8.48       6.05       7.77
O       7.89       6.19      10.61
O       6.04       6.20      11.85
O       1.89       4.32       0.74
