16

H       8.28       9.60       5.39
H      11.08      12.27       6.46
H      12.66      11.09       5.26
H       9.86       8.43       4.20
C       9.51      11.07       6.04
C       9.16       9.91       5.36
C      10.83      11.50       6.00
C       8.50      11.81       6.86
C      11.43       9.62       4.62
C      11.78      10.79       5.29
C      10.11       9.20       4.65
C      12.44       8.88       3.79
O       8.75      12.99       7.25
O       7.43      11.23       7.21
O      12.19       7.71       3.41
O      13.51       9.46       3.45
