16

H       7.90       5.05       7.54
H      10.52       5.47       4.53
H       8.81       6.06       3.12
H       6.19       5.64       6.13
C       9.40       5.19       6.18
C       8.08       5.25       6.65
C       9.65       5.50       4.85
C      10.50       4.75       7.09
C       7.31       5.93       4.47
C       8.62       5.86       4.01
C       7.06       5.61       5.80
C       6.21       6.36       3.57
O      11.66       4.58       6.65
O      10.25       4.54       8.31
O       5.04       6.53       4.01
O       6.46       6.57       2.35
