55

H       1.66       6.07      27.17
H       2.54       5.03      28.31
C       3.64       1.73      33.07
C       0.84       4.09      27.46
H      -1.42       5.16      25.33
H       0.32       5.67      25.33
C       1.51       2.60      32.02
H       1.09       2.69      17.65
C       2.83       2.13      31.88
H      -0.28       3.27      19.66
C       0.53       3.11      28.40
C       1.31       2.80      29.60
C       0.75       2.92      30.89
C      -0.66       2.48      27.94
C       3.64       1.73      17.59
H       4.42       1.67      20.15
H      -2.31       1.13      22.70
H      -0.76       0.41      22.19
C      -1.38       1.31      28.52
C       1.51       2.60      18.65
C       2.64       2.36      29.48
C       0.84       4.09      23.21
H       3.07       2.26      22.18
C       2.83       2.13      18.78
H       2.69       4.76      24.10
H      -1.64       1.47      21.09
C       0.53       3.11      22.26
C       0.75       2.92      19.77
C       1.31       2.80      21.06
C      -0.37       4.82      25.33
C      -0.66       2.48      22.72
C       1.99       5.04      27.37
N      -0.16       4.04      24.14
N      -1.08       3.05      23.88
C       3.39       2.03      20.06
H       1.66       6.07      23.49
C      -1.38       1.31      22.14
H       2.54       5.03      22.35
C       2.64       2.36      21.18
C       1.99       5.04      23.30
N      -0.16       4.04      26.52
N      -1.08       3.05      26.78
O       3.11       1.86      16.43
O       4.80       1.27      17.82
O       3.11       1.86      34.23
O       4.80       1.27      32.84
H       1.09       2.69      33.02
H      -0.28       3.27      31.00
H       4.42       1.67      30.51
H      -2.31       1.13      27.96
H      -0.76       0.41      28.48
H      -1.64       1.47      29.58
H       3.07       2.26      28.49
C       3.39       2.03      30.60
H       2.69       4.76      26.56
