55

H       8.32       1.81      15.64
H      15.15       3.63      11.00
H      16.16       2.32      11.71
H      10.75       2.17      15.32
C      13.15       1.29      13.93
C      10.72       1.72      13.20
H      12.87       0.94      16.03
H      13.78      -0.32      15.18
C      12.17       1.88      13.07
H      10.33       1.19      11.14
H       7.87       0.94      11.46
C       7.94       1.37      13.57
C       8.76       1.70      14.65
C       6.47       1.20      13.77
H      12.01      -0.20      14.96
C      15.41       3.09      11.92
H      17.61       7.77      12.15
C      10.13       1.88      14.47
H      17.03       6.94      16.35
C      16.85       5.80      13.88
C      12.89       2.63      12.14
H      18.37       3.39      15.89
H      17.41       4.63      16.72
H      18.86       5.11      15.82
C      12.94       0.38      15.09
N      14.22       2.46      12.45
C       8.51       1.21      12.30
C       9.89       1.37      12.12
N      14.38       1.64      13.53
N      16.00       4.04      12.86
C      16.08       5.40      12.79
N      16.67       3.54      13.94
H      14.30       5.92      11.73
H      15.78       6.06      10.75
H      15.41       7.27      11.99
C      17.60       8.09      13.19
C      18.00       4.42      15.82
C      17.32       7.62      15.55
C      12.41       3.48      11.01
C      15.36       6.20      11.76
H      12.72       3.09      10.03
H      12.78       4.51      11.10
H      11.32       3.52      11.04
O      18.03      12.13      14.34
O       5.68       1.13      12.79
O       6.03       1.20      15.00
O      19.10      11.43      16.22
C      17.25       7.18      14.21
C      17.95       9.41      13.50
C      17.73       8.91      15.85
C      17.18       4.60      14.58
C      18.43      11.23      15.15
C      18.03       9.83      14.83
H      18.19      10.11      12.71
H      17.81       9.23      16.89
