27

H       1.09       3.65       6.72
H       2.89       5.30       7.25
H       3.36       3.51      11.14
H       1.56       1.89      10.60
H       4.79       5.15      11.50
H       4.51       6.15       8.61
H       8.25       8.02      13.03
H       6.35       6.40      12.86
N       8.20       8.52      11.02
H       6.11       7.39       8.66
H       7.99       8.97       9.02
O      -0.02       0.67       9.06
O      -0.47       1.76       7.19
C       0.19       1.68       8.29
C       1.21       2.69       8.64
C       1.58       3.66       7.69
C       2.58       4.57       7.99
C       3.24       4.55       9.24
C       2.86       3.57      10.18
C       1.85       2.65       9.89
C       5.00       5.73      10.61
C       4.29       5.52       9.47
C       7.74       7.82      12.08
C       6.69       6.93      11.97
C       6.06       6.71      10.73
C       6.54       7.48       9.65
C       7.59       8.36       9.83
