584

H      27.84      20.53      52.81
H      28.83      22.64      52.32
H      28.81      27.55      52.31
H      27.82      29.65      52.82
H      24.45      27.68      54.41
H      24.47      22.50      54.39
H      24.92      25.07      51.27
H      20.71      25.09      51.12
H      20.62      25.11      53.48
H      27.16      25.09      55.95
H      22.75      25.10      57.92
H      24.66      25.10      59.33
H      28.88      25.10      53.26
H      28.12      25.09      51.65
H      22.00      25.98      55.55
H      21.99      24.21      55.55
H      24.46      20.11      54.09
H      24.54      30.12      54.39
H      28.15      25.10      58.17
H      23.74      24.91      49.08
H      27.84      29.66       9.51
H      28.83      27.55      10.00
H      28.81      22.64      10.01
H      27.82      20.55       9.50
H      24.45      22.51       7.91
H      24.46      27.70       7.93
H      24.93      25.12      11.06
H      20.71      25.10      11.23
H      20.62      25.09       8.87
H      27.13      25.10       6.32
H      22.67      25.10       4.45
H      24.52      25.10       3.01
H      28.88      25.09       9.06
H      28.12      25.10      10.67
H      21.97      24.21       6.81
H      21.96      25.98       6.81
H      24.46      30.08       8.23
H      24.54      20.08       7.93
H      28.05      25.10       4.00
H      23.75      25.28      13.26
H      27.17       3.71       9.50
H      26.19       5.80      10.01
H      26.17      10.71      10.00
H      27.16      12.82       9.51
H       0.04      10.86       7.93
H       0.05       5.68       7.91
H      30.07       8.25      11.05
H       3.80       8.24      11.19
H       3.88       8.26       8.83
H      27.83       8.26       6.37
H       1.76       8.25       4.40
H      30.33       8.25       2.99
H      26.11       8.25       9.06
H      26.87       8.26      10.67
H       2.52       9.15       6.76
H       2.51       7.37       6.77
H      30.45       3.24       7.93
H       0.05      13.24       8.23
H      26.85       8.25       4.15
H       0.77       8.07      13.24
H      27.17      12.80      52.82
H      26.19      10.71      52.31
H      26.17       5.80      52.32
H      27.15       3.69      52.81
H       0.04       5.65      54.39
H       0.06      10.83      54.40
H      30.07       8.26      51.26
H       3.79       8.27      51.09
H       3.89       8.25      53.45
H      27.86       8.25      56.00
H       1.84       8.26      57.87
H      30.47       8.26      59.31
H      26.11       8.26      53.26
H      26.87       8.25      51.65
H       2.54       7.36      55.51
H       2.54       9.14      55.50
H      30.45      13.27      54.39
H       0.05       3.27      54.08
H      26.94       8.26      58.32
H       0.76       8.44      49.06
H      12.60       3.69      21.34
H      13.58       5.80      20.85
H      13.56      10.71      20.84
H      12.58      12.80      21.35
H       9.21      10.83      22.94
H       9.22       5.65      22.92
H       9.68       8.27      19.80
H       5.47       8.28      19.64
H       5.38       8.25      22.00
H      11.92       8.25      24.48
H       7.51       8.25      26.45
H       9.41       8.26      27.86
H      13.64       8.26      21.79
H      12.88       8.25      20.19
H       6.75       9.14      24.07
H       6.75       7.36      24.08
H       9.21       3.27      22.62
H       9.30      13.27      22.92
H      12.90       8.26      26.70
H       8.51       8.45      17.60
H      12.60      12.82      40.98
H      13.58      10.71      41.47
H      13.56       5.80      41.48
H      12.58       3.71      40.97
H       9.21       5.68      39.38
H       9.22      10.86      39.40
H       9.69       8.24      42.54
H       5.48       8.23      42.71
H       5.38       8.26      40.35
H      11.89       8.26      37.79
H       7.42       8.26      35.93
H       9.28       8.25      34.48
H      13.64       8.25      40.53
H      12.88       8.26      42.13
H       6.73       7.37      38.29
H       6.72       9.15      38.28
H       9.21      13.24      39.70
H       9.30       3.24      39.40
H      12.80       8.25      35.46
H       8.52       8.06      44.73
H      11.93      20.55      40.97
H      10.94      22.64      41.48
H      10.92      27.56      41.47
H      11.91      29.66      40.98
H      15.28      27.70      39.40
H      15.30      22.52      39.38
H      14.83      25.13      42.52
H      19.03      25.11      42.68
H      19.12      25.09      40.32
H      12.59      25.10      37.84
H      17.00      25.10      35.87
H      15.09      25.09      34.46
H      10.87      25.09      40.53
H      11.63      25.10      42.13
H      17.76      25.98      38.24
H      17.76      24.21      38.24
H      15.21      20.08      39.40
H      15.30      30.08      39.70
H      11.61      25.10      35.62
H      16.00      25.29      44.72
H      11.93      29.65      21.35
H      10.94      27.55      20.84
H      10.92      22.64      20.85
H      11.91      20.53      21.34
H      15.29      22.50      22.92
H      15.30      27.68      22.94
H      14.82      25.06      19.78
H      19.03      25.08      19.61
H      19.13      25.11      21.97
H      12.62      25.09      24.53
H      17.08      25.10      26.39
H      15.23      25.10      27.84
H      10.87      25.10      21.79
H      11.63      25.09      20.18
H      17.79      24.21      24.03
H      17.78      25.98      24.03
H      15.21      30.11      22.92
H      15.30      20.11      22.62
H      11.70      25.10      26.86
H      15.99      24.90      17.59
H      25.03      25.10       0.66
H      29.97       8.25      61.66
H       9.78       8.25      32.13
H      14.72      25.10      30.19
H      29.38      33.60      52.41
H      29.38      16.60       9.91
H      25.62      33.44       9.91
H      25.62      16.76      52.41
H      14.13      16.76      20.94
H      14.13      33.43      41.38
H      10.38      16.59      41.38
H      10.37      33.60      20.94
H      21.90      23.99      46.32
H      21.90      26.20      16.01
H       2.61       7.15      16.00
H       2.61       9.36      46.31
C      25.09      25.09      55.50
C      23.81      25.09      56.09
C      22.72      25.10      53.81
C      23.98      25.09      53.17
C      24.01      25.08      51.74
C      22.83      25.08      50.95
C      21.60      25.10      51.63
C      21.54      25.10      53.03
C      23.68      25.09      57.49
C      24.81      25.10      58.32
C      26.11      25.09      57.78
C      26.23      25.09      56.37
C      25.96      23.80      53.67
C      27.24      23.83      53.07
C      27.23      26.35      53.06
C      25.95      26.38      53.66
C      27.88      27.56      52.75
C      27.30      28.80      53.06
C      26.04      28.87      53.68
C      25.37      27.65      53.96
C      25.39      22.53      53.96
C      26.06      21.31      53.68
C      27.33      21.38      53.07
C      27.91      22.62      52.77
C      25.24      25.09      54.00
C      27.92      25.09      52.73
C      22.57      25.09      55.28
C      25.47      30.10      54.03
C      27.25      25.10      58.60
C      25.43      20.09      53.91
C      22.87      25.02      49.55
C      25.07      25.10       6.82
C      23.77      25.10       6.26
C      22.71      25.10       8.54
C      23.98      25.10       9.17
C      24.02      25.11      10.60
C      22.84      25.11      11.39
C      21.60      25.10      10.71
C      21.54      25.09       9.32
C      23.60      25.10       4.87
C      24.71      25.10       4.02
C      26.03      25.10       4.52
C      26.18      25.10       5.93
C      25.96      26.39       8.65
C      27.24      26.36       9.25
C      27.22      23.84       9.26
C      25.95      23.81       8.66
C      27.88      22.63       9.57
C      27.30      21.39       9.26
C      26.03      21.32       8.64
C      25.37      22.54       8.36
C      25.39      27.66       8.36
C      26.06      28.89       8.64
C      27.33      28.81       9.25
C      27.91      27.57       9.55
C      25.24      25.10       8.33
C      27.92      25.10       9.59
C      22.55      25.10       7.08
C      25.47      20.09       8.29
C      27.12      25.10       3.64
C      25.43      30.11       8.41
C      22.88      25.18      12.79
C      29.90       8.26       6.82
C       0.70       8.26       6.23
C       1.79       8.27       8.51
C       0.53       8.27       9.15
C       0.50       8.26      10.58
C       1.67       8.25      11.37
C       2.91       8.26      10.69
C       2.97       8.27       9.29
C       0.83       8.26       4.83
C      30.19       8.25       4.00
C      28.88       8.26       4.54
C      28.77       8.26       5.95
C      29.05       6.97       8.66
C      27.77       7.00       9.26
C      27.75       9.52       9.25
C      29.03       9.55       8.65
C      27.09      10.73       9.55
C      27.66      11.97       9.25
C      28.93      12.05       8.64
C      29.60      10.83       8.36
C      29.62       5.70       8.36
C      28.96       4.48       8.64
C      27.70       4.55       9.26
C      27.11       5.79       9.57
C      29.75       8.27       8.32
C      27.07       8.26       9.59
C       1.94       8.26       7.04
C      29.56      13.27       8.41
C      27.74       8.25       3.72
C      29.53       3.25       8.29
C       1.64       8.18      12.77
C      29.92       8.25      55.50
C       0.73       8.25      56.06
C       1.80       8.24      53.78
C       0.53       8.24      53.15
C       0.49       8.25      51.72
C       1.67       8.26      50.93
C       2.91       8.25      51.61
C       2.97       8.24      53.00
C       0.90       8.25      57.45
C      30.28       8.26      58.30
C      28.96       8.25      57.80
C      28.81       8.25      56.39
C      29.05       9.54      53.66
C      27.77       9.51      53.06
C      27.75       6.99      53.07
C      29.03       6.96      53.67
C      27.09       5.78      52.77
C      27.66       4.54      53.07
C      28.93       4.46      53.68
C      29.60       5.68      53.96
C      29.62      10.81      53.96
C      28.96      12.03      53.68
C      27.70      11.96      53.06
C      27.11      10.72      52.75
C      29.76       8.24      53.99
C      27.07       8.25      52.73
C       1.96       8.25      55.24
C      29.56       3.24      53.91
C      27.87       8.26      58.68
C      29.53      13.26      54.03
C       1.63       8.33      49.53
C       9.85       8.25      24.03
C       8.56       8.25      24.62
C       7.48       8.24      22.33
C       8.74       8.24      21.69
C       8.77       8.26      20.26
C       7.60       8.27      19.47
C       6.36       8.26      20.15
C       6.30       8.24      21.55
C       8.43       8.25      26.02
C       9.56       8.25      26.85
C      10.87       8.25      26.31
C      10.98       8.25      24.90
C      10.72       6.96      22.20
C      12.00       6.99      21.60
C      11.98       9.51      21.59
C      10.71       9.54      22.19
C      12.64      10.72      21.28
C      12.05      11.96      21.59
C      10.79      12.03      22.21
C      10.13      10.81      22.49
C      10.15       5.68      22.49
C      10.82       4.46      22.21
C      12.09       4.54      21.60
C      12.66       5.78      21.30
C      10.00       8.24      22.53
C      12.68       8.25      21.26
C       7.33       8.25      23.80
C      10.22      13.26      22.56
C      12.01       8.26      27.13
C      10.19       3.24      22.44
C       7.64       8.35      18.06
C       9.83       8.26      38.29
C       8.53       8.26      37.73
C       7.47       8.27      40.02
C       8.74       8.27      40.64
C       8.78       8.26      42.07
C       7.60       8.24      42.87
C       6.36       8.25      42.19
C       6.30       8.27      40.80
C       8.36       8.26      36.34
C       9.47       8.26      35.49
C      10.79       8.26      35.99
C      10.94       8.26      37.40
C      10.72       9.55      40.12
C      12.00       9.52      40.72
C      11.98       7.00      40.73
C      10.71       6.97      40.13
C      12.64       5.79      41.04
C      12.06       4.55      40.73
C      10.79       4.48      40.11
C      10.13       5.70      39.83
C      10.15      10.82      39.83
C      10.82      12.05      40.11
C      12.09      11.97      40.72
C      12.66      10.73      41.02
C      10.00       8.27      39.80
C      12.68       8.26      41.06
C       7.30       8.26      38.55
C      10.22       3.25      39.76
C      11.88       8.26      35.11
C      10.19      13.27      39.88
C       7.65       8.16      44.27
C      14.66      25.10      38.29
C      15.94      25.10      37.70
C      17.03      25.10      39.99
C      15.77      25.11      40.63
C      15.73      25.12      42.05
C      16.91      25.12      42.85
C      18.15      25.10      42.17
C      18.20      25.09      40.77
C      16.07      25.10      36.30
C      14.95      25.10      35.47
C      13.64      25.10      36.01
C      13.53      25.10      37.42
C      13.80      23.81      40.13
C      12.52      23.84      40.73
C      12.51      26.36      40.72
C      13.79      26.39      40.12
C      11.84      27.57      41.02
C      12.42      28.81      40.72
C      13.69      28.89      40.11
C      14.36      27.67      39.83
C      14.38      22.54      39.83
C      13.72      21.32      40.11
C      12.45      21.39      40.73
C      11.87      22.63      41.04
C      14.51      25.11      39.79
C      11.83      25.10      41.06
C      17.18      25.10      38.52
C      14.32      30.11      39.88
C      12.50      25.10      35.19
C      14.28      20.09      39.76
C      16.87      25.19      44.25
C      14.68      25.09      24.03
C      15.98      25.09      24.59
C      17.04      25.10      22.30
C      15.77      25.09      21.68
C      15.73      25.08      20.25
C      16.91      25.07      19.45
C      18.15      25.09      20.13
C      18.21      25.10      21.52
C      16.15      25.10      25.98
C      15.04      25.10      26.83
C      13.72      25.10      26.33
C      13.57      25.09      24.92
C      13.80      26.38      22.19
C      12.53      26.35      21.59
C      12.51      23.83      21.60
C      13.79      23.80      22.20
C      11.84      22.62      21.30
C      12.42      21.38      21.60
C      13.69      21.31      22.21
C      14.36      22.53      22.49
C      14.38      27.65      22.49
C      13.72      28.87      22.21
C      12.45      28.80      21.59
C      11.87      27.56      21.28
C      14.51      25.09      22.52
C      11.83      25.09      21.26
C      17.20      25.10      23.77
C      14.32      20.09      22.44
C      12.63      25.10      27.21
C      14.28      30.10      22.56
C      16.86      25.00      18.05
C      27.28      25.10      61.20
C      25.96      25.10       0.25
C      27.12      25.10       1.06
C      28.45      25.10      62.01
C      29.65      25.10      61.52
C      27.71       8.25       1.12
C      29.03       8.26      62.07
C      27.88       8.26      61.26
C      26.54       8.26       0.31
C      25.35       8.26       0.80
C      12.04       8.26      29.73
C      10.72       8.26      31.72
C      11.87       8.26      32.52
C      13.21       8.26      30.54
C      14.41       8.26      30.05
C      12.47      25.10      32.59
C      13.79      25.10      30.60
C      12.63      25.10      29.80
C      11.30      25.10      31.78
C      10.10      25.10      32.27
C      26.70      32.39      53.92
C      28.55      33.61      53.00
C      28.21       1.07      53.76
C      26.36      33.54      54.68
C      25.41      33.55      55.55
C      26.70      17.80       8.40
C      28.55      16.59       9.32
C      28.21      15.45       8.56
C      26.36      16.66       7.64
C      25.41      16.64       6.77
C      28.29       0.96       8.40
C      26.45      33.43       9.32
C      26.78      32.28       8.56
C      28.63      33.50       7.64
C      29.59      33.48       6.77
C      28.29      15.55      53.92
C      26.45      16.77      53.00
C      26.78      17.91      53.76
C      28.63      16.69      54.68
C      29.59      16.71      55.55
C      11.46      15.55      22.45
C      13.31      16.77      21.54
C      12.97      17.90      22.29
C      11.12      16.69      23.21
C      10.16      16.71      24.08
C      11.46       0.96      39.87
C      13.30      33.42      40.78
C      12.97      32.28      40.03
C      11.12      33.50      39.11
C      10.16      33.48      38.24
C      13.05      17.80      39.87
C      11.20      16.59      40.78
C      11.54      15.45      40.03
C      13.39      16.66      39.11
C      14.34      16.64      38.24
C      13.05      32.39      22.45
C      11.20      33.61      21.53
C      11.54       1.07      22.29
C      13.39      33.54      23.21
C      14.34      33.55      24.08
C      18.81      25.15      45.98
C      21.05      24.48      46.59
C      20.91      25.08      47.85
C      18.68      25.75      47.26
C      17.66      26.42      47.67
C      18.81      25.04      16.33
C      21.04      25.71      15.74
C      20.91      25.12      14.47
C      18.68      24.44      15.06
C      17.66      23.77      14.64
C       5.69       8.31      16.34
C       3.46       7.64      15.73
C       3.60       8.24      14.46
C       5.82       8.91      15.06
C       6.85       9.58      14.65
C       5.70       8.20      45.99
C       3.46       8.87      46.58
C       3.60       8.27      47.85
C       5.82       7.60      47.26
C       6.85       6.93      47.68
N      26.09      25.10      61.84
N      28.32      25.10       0.43
N       0.23      25.10      61.11
N      27.24      25.10      59.88
N      26.96      25.10       2.37
N      28.90       8.25       0.48
N      26.67       8.26      61.89
N      24.27       8.26       1.21
N      27.76       8.25       2.44
N      28.03       8.26      59.95
N      10.85       8.26      30.37
N      13.08       8.26      31.90
N      15.48       8.26      29.64
N      11.99       8.26      28.41
N      11.72       8.26      33.83
N      13.66      25.10      31.95
N      11.43      25.10      30.42
N       9.03      25.10      32.68
N      12.51      25.10      33.91
N      12.79      25.10      28.49
N      27.79      32.49      53.11
N      27.14       0.97      54.60
N      24.57      33.60      56.34
N      26.07      31.23      53.98
N      29.08       2.05      53.87
N      27.79      17.71       9.21
N      27.15      15.54       7.72
N      24.57      16.60       5.98
N      26.07      18.96       8.34
N      29.08      14.45       8.45
N      27.20       0.87       9.21
N      27.85      32.39       7.72
N      30.42      33.44       5.98
N      28.92       2.12       8.34
N      25.92      31.29       8.45
N      27.20      15.64      53.11
N      27.85      17.81      54.60
N      30.42      16.76      56.34
N      28.93      14.39      53.98
N      25.92      18.90      53.87
N      12.55      15.64      21.64
N      11.90      17.81      23.13
N       9.33      16.76      24.87
N      10.83      14.39      22.51
N      13.83      18.90      22.40
N      12.55       0.86      40.68
N      11.90      32.39      39.19
N       9.33      33.44      37.45
N      10.83       2.12      39.81
N      13.83      31.30      39.92
N      11.96      17.71      40.68
N      12.61      15.54      39.19
N      15.18      16.60      37.45
N      13.68      18.96      39.81
N      10.68      14.45      39.92
N      11.96      32.49      21.64
N      12.61       0.97      23.13
N      15.18      33.60      24.87
N      13.68      31.23      22.51
N      10.67       2.05      22.40
N      20.00      24.55      45.71
N      19.73      25.68      48.13
N      16.80      27.04      48.12
N      17.93      25.15      44.98
N      21.81      25.06      48.82
N      20.00      25.64      16.61
N      19.73      24.51      14.19
N      16.80      23.15      14.20
N      17.92      25.04      17.32
N      21.82      25.13      13.51
N       4.50       7.71      16.61
N       4.78       8.84      14.19
N       7.70      10.20      14.20
N       6.57       8.31      17.34
N       2.70       8.23      13.50
N       4.51       8.80      45.71
N       4.78       7.67      48.13
N       7.70       6.31      48.12
N       6.59       8.20      45.00
N       2.69       8.29      48.81
