29

C      13.03       4.57       3.17
C      11.99       5.37       2.72
H       9.29       3.75       3.66
H      17.04       4.96       2.02
H      14.30       2.84       4.66
H      15.52       6.35       1.62
H      12.79       3.72       3.80
N      17.65       2.72       4.47
N      12.18       6.44       1.93
O      20.13       3.37       3.93
O      19.58       4.10       1.87
O      17.29       0.87       6.36
O      15.12       0.67       5.81
O      12.32       8.32       0.14
O      14.58       8.48       0.35
O       9.68       5.94       2.71
O      10.32       3.92       3.52
C      19.27       3.71       3.03
C      16.22       1.26       5.73
C      13.49       7.97       0.60
C      10.55       5.09       3.00
C      17.84       3.59       3.45
C      16.80       4.28       2.83
C      15.48       4.09       3.30
C      15.28       3.10       4.27
C      16.38       2.43       4.81
C      13.42       6.77       1.55
C      14.53       6.03       1.97
C      14.35       4.91       2.79
