25

H       8.37       1.23       7.52
H       6.05       1.90       6.85
H       7.39       1.84       2.75
H       9.65       1.19       3.59
H       1.46       3.33       3.49
H       5.67       3.50       2.62
H       4.21       1.10       5.91
N       9.09       1.18       5.59
O       0.41       1.73       5.22
O       1.98       0.72       6.50
O       2.39       5.34       2.01
O       4.07       4.40       0.82
C       8.10       1.38       6.48
C       6.81       1.74       6.09
C       6.51       1.92       4.73
C       7.56       1.73       3.82
C       8.82       1.36       4.28
C       2.48       3.03       3.72
C       3.55       3.51       2.95
C       4.86       3.11       3.23
C       5.13       2.27       4.33
C       4.05       1.79       5.08
C       2.73       2.13       4.76
C       3.31       4.48       1.84
C       1.63       1.49       5.55
