25

H       6.55       5.06       0.49
H       8.86       4.39      -0.17
H       7.53       4.45      -4.28
H       5.27       5.10      -3.43
H      13.45       2.95      -3.53
H       9.24       2.79      -4.41
H      10.70       5.18      -1.12
N       5.82       5.11      -1.44
O      14.50       4.55      -1.81
O      12.93       5.57      -0.53
O      12.53       0.94      -5.02
O      10.84       1.88      -6.21
C       6.82       4.91      -0.55
C       8.10       4.55      -0.93
C       8.41       4.37      -2.29
C       7.36       4.56      -3.21
C       6.10       4.93      -2.75
C      12.44       3.26      -3.31
C      11.37       2.78      -4.08
C      10.05       3.18      -3.79
C       9.79       4.01      -2.70
C      10.87       4.50      -1.95
C      12.19       4.16      -2.26
C      11.60       1.81      -5.18
C      13.29       4.80      -1.47
