16

H       6.49       5.38       6.56
H       2.40       5.73       7.86
H       2.69       3.70       9.29
H       6.78       3.36       8.00
C       4.26       6.85       6.23
C       5.67       5.00       7.16
C       3.35       5.20       7.90
O       5.23       7.18       5.46
O       3.15       7.50       6.26
C       4.43       5.67       7.12
C       5.83       3.88       7.97
C       4.75       3.41       8.73
C       3.51       4.08       8.70
O       3.93       1.76      10.25
O       6.04       1.57       9.51
C       4.91       2.18       9.55
