16

H       6.65      12.18       3.49
H       6.94      14.31       2.20
H       2.67      14.79       2.04
H       2.38      12.63       3.29
O       6.15      16.15       0.74
O       4.03      16.75       1.20
C       5.79      12.75       3.16
O       3.20      10.68       4.66
C       4.34      11.00       4.20
C       4.50      12.28       3.46
O       5.38      10.26       4.33
C       5.95      13.93       2.45
C       4.82      14.67       2.05
C       3.53      14.21       2.36
C       3.37      13.02       3.06
C       5.01      15.93       1.28
