20

H      11.82       8.38       9.54
H      11.49       5.94       9.19
H      12.94       4.72       7.53
H      14.79       8.53       6.65
C      12.41       7.83       8.81
C      12.25       6.46       8.61
C      13.04       5.80       7.68
N      13.35       8.57       8.13
C      14.00       6.54       6.95
C      14.10       7.91       7.22
N      14.98       4.43       4.01
H      16.82       4.35       3.00
H      17.94       6.03       4.45
H      16.67       7.05       6.37
H      13.26       4.71       5.11
C      16.29       4.82       3.82
C      16.90       5.76       4.65
C      16.20       6.33       5.70
C      14.85       5.95       5.91
C      14.31       5.00       5.03
