20

H       5.20      14.56       8.26
H       3.60      13.33       9.72
H       2.51      14.52      11.64
H       4.58      18.09      10.36
C       4.69      15.06       9.08
C       3.80      14.38       9.91
C       3.19      15.04      10.97
C       3.47      16.42      11.17
C       4.37      17.03      10.28
N       0.77      17.73      13.40
N       4.99      16.39       9.26
H       0.85      19.28      14.81
H       3.26      19.77      14.45
H       4.57      18.42      12.79
H       0.91      16.29      11.93
C       1.44      18.72      14.08
C       2.79      18.98      13.87
C       3.51      18.24      12.94
C       2.84      17.23      12.21
C       1.48      17.03      12.49
