20

H      11.28       8.91       6.23
H       8.87       8.39       6.61
H       7.56       9.73       8.28
H      11.18      11.95       9.07
C      10.69       9.47       6.96
C       9.34       9.19       7.18
C       8.62       9.93       8.11
C       9.28      10.96       8.84
C      10.63      11.18       8.53
N      11.34      10.48       7.62
N       7.09      11.79      11.75
H       6.89      13.60      12.78
H       8.50      14.84      11.34
H       9.62      13.66       9.43
H       7.47      10.11      10.61
C       7.41      13.11      11.96
C       8.30      13.79      11.14
C       8.93      13.13      10.09
C       8.64      11.76       9.87
C       7.71      11.16      10.73
