20

C       3.35      16.32       6.69
C       2.74      15.37       5.88
C       3.44      14.78       4.83
C       4.79      15.17       4.61
C       5.32      16.15       5.46
N       6.25      12.56       2.36
N       4.65      16.74       6.48
H       2.83      16.80       7.51
H       7.80      12.73       0.97
H       8.15      15.17       1.33
H       6.74      16.39       3.01
H       4.77      12.63       3.81
H       1.71      15.09       6.09
H       6.36      16.47       5.35
H       2.96      14.06       4.17
C       7.21      13.28       1.69
C       7.39      14.65       1.91
C       6.61      15.32       2.84
C       5.64      14.59       3.57
C       5.50      13.23       3.27
