20

C       5.40       7.84       1.70
C       5.21       6.48       1.91
C       5.99       5.80       2.85
C       6.97       6.53       3.58
C       7.11       7.89       3.28
N       7.95       4.43       6.52
N       6.36       8.56       2.36
H       9.78       4.35       7.53
H      10.90       6.03       6.08
H       9.64       7.04       4.16
H       6.22       4.71       5.42
C       9.25       4.82       6.71
C       9.87       5.76       5.88
C       9.17       6.33       4.82
C       7.81       5.95       4.62
C       7.27       5.00       5.50
H       4.81       8.39       0.97
H       4.45       5.96       1.34
H       5.87       4.73       3.01
H       7.83       8.49       3.82
