120

La       9.92       9.99       7.02
La      10.15       7.37       0.61
La       7.55       1.60       5.78
La       7.32       4.23      12.18
H       8.18       7.85       9.14
H      12.66       6.63      10.77
H      15.40       8.75       8.13
H      14.18       5.24      11.17
H       4.68       7.87       8.99
H      11.90       9.52       2.78
H       7.43      10.75       4.38
H       4.69       8.63       1.75
H       0.68       0.57       4.78
H      15.41       9.51       2.60
H       9.29       3.75       3.66
H       4.81       4.96       2.02
H       2.07       2.84       4.66
H       3.29       6.35       1.62
H      12.79       3.72       3.80
H       5.57       2.08      10.01
H      10.04       0.84       8.41
H      12.78       2.96      11.05
H      16.79      11.03       8.01
H       2.06       2.08      10.19
C      10.42       7.88       9.77
C      13.48      10.33       7.06
C       3.98       3.63      12.19
C       6.92       6.50       9.79
C      11.86       8.00       9.34
C      12.90       7.31       9.96
C      14.21       7.50       9.50
C      14.42       8.49       8.52
C      13.32       9.16       7.99
C       4.05       4.82      11.25
C       2.94       5.56      10.83
C       3.12       6.69      10.00
C       4.44       7.02       9.63
C       5.48       6.22      10.08
C       9.66       9.48       3.38
C       6.60       7.04       0.68
C      10.88       2.19       5.79
C      13.17      10.88       3.41
C       8.23       9.37       2.95
C       7.19      10.07       3.57
C       5.87       9.89       3.11
C       5.67       8.89       2.13
C       6.77       8.22       1.60
C      10.81       0.99       4.84
C      11.92       0.25       4.43
C      16.97      10.70       3.61
C      15.65      10.37       3.24
C      14.61      11.16       3.68
C       7.05       3.71       3.03
C       3.99       1.26       5.73
C      13.49       7.97       0.60
C      10.55       5.09       3.00
C       5.61       3.59       3.45
C       4.57       4.28       2.83
C       3.26       4.09       3.30
C       3.05       3.10       4.27
C       4.15       2.43       4.81
C      13.42       6.77       1.55
C      14.53       6.03       1.97
C      14.35       4.91       2.79
C      13.03       4.57       3.17
C      11.99       5.37       2.72
C       7.81       2.11       9.41
C      10.87       4.55      12.11
C       6.59       9.40       7.00
C       4.30       0.71       9.39
C       9.24       2.22       9.84
C      10.28       1.52       9.23
C      11.60       1.71       9.69
C      11.80       2.70      10.66
C      10.70       3.38      11.19
C       6.66      10.60       7.95
C       5.55      11.34       8.36
C       0.50       0.89       9.19
C       1.82       1.23       9.56
C       2.86       0.43       9.11
N      12.05       8.87       8.33
N       5.29       5.15      10.86
N       8.04       8.51       1.94
N       9.57       0.66       4.46
N       5.42       2.72       4.47
N      12.18       6.44       1.93
N       9.44       3.09      10.86
N       7.90      10.93       8.33
O       9.56       8.22       8.87
O      10.12       7.50      10.92
O      12.41      10.72       6.44
O      14.58      10.92       6.98
O       5.15       3.27      12.66
O       2.89       3.11      12.45
O       7.79       5.65      10.09
O       7.15       7.67       9.27
O      10.53       9.13       2.49
O       9.96       9.86       4.54
O       7.68       6.66       0.06
O       5.51       6.44       0.61
O       9.71       2.57       6.23
O      11.98       2.68       6.08
O       7.07       0.16       3.70
O      12.93       9.70       2.91
O       7.91       3.37       3.93
O       7.35       4.10       1.87
O       5.06       0.87       6.36
O       2.89       0.67       5.81
O      12.32       8.32       0.14
O      14.58       8.48       0.35
O       9.68       5.94       2.71
O      10.32       3.92       3.52
O       6.94       2.47      10.30
O       7.51       1.73       8.25
O       9.79       4.93      12.74
O      11.96       5.15      12.18
O       7.76       9.03       6.57
O       5.49       8.91       6.72
O      10.40      11.43       9.10
O       4.54       1.89       9.89
