66

H      15.85      18.71      13.37
H      14.29      14.71      13.50
H      14.05      16.98       9.85
H      10.46      12.80      11.16
H      14.80      14.36       9.35
H      13.09      13.96       6.54
H      15.44      14.43       5.79
H      15.10      14.90       7.44
H      16.24      12.76       8.26
H      17.34      13.80       7.33
H      16.63      12.36       6.58
H      14.69      11.45       5.73
H      14.15      12.72       4.61
H      12.95      11.72       5.47
H      10.61      13.16      13.46
H      10.08      14.52      15.49
H      11.81      14.33      15.22
H      11.45      16.67      15.84
H      10.16      16.87      14.66
H      11.84      16.65      14.11
H       9.44      15.88      12.65
H       8.50      14.61      13.47
H       9.13      14.34      11.83
H      10.53      10.38      10.30
H       8.81       9.41       6.48
H      11.18      12.97       6.92
C      15.10      19.30      10.87
C      14.99      17.97      11.53
C      15.39      17.86      12.87
C      15.15      16.68      13.58
C      14.51      15.61      12.93
C      14.12      15.69      11.59
C      14.38      16.88      10.89
C      15.49      16.54      15.03
C      13.37      14.59      10.93
C      12.16      14.10      11.48
C      11.42      13.15      10.77
C      11.84      12.68       9.52
C      13.09      13.10       9.01
C      13.83      14.06       9.72
C      13.92      13.24       6.69
C      15.23      14.03       6.79
C      16.43      13.19       7.27
C      13.93      12.22       5.56
C      10.64      14.26      13.42
C      10.91      14.81      14.83
C      11.10      16.33      14.85
C       9.35      14.80      12.80
C       9.78      11.54       5.11
C       9.06       8.51       9.04
C      10.98      11.78       8.71
C      10.37      10.64       9.25
C       9.59       9.79       8.46
C       9.39      10.08       7.11
C       9.97      11.24       6.56
C      10.75      12.08       7.36
O      15.69      20.21      11.55
O      14.57      19.48       9.71
O      16.08      17.52      15.63
O      15.15      15.44      15.57
O      13.61      12.46       7.90
O      11.81      14.67      12.67
O      10.26      12.63       4.62
O       9.14      10.66       4.45
O       8.46       7.67       8.28
O       9.29       8.34      10.29
