11

Cd       4.19       2.55      18.09
C       6.13       2.22      15.47
N       5.69       1.38      19.43
N       5.06       1.67      16.09
O       4.37       4.61      18.97
C       1.89       1.11      18.67
O       2.22       2.17      19.31
C       5.28       0.28      20.08
C       7.00       1.71      19.49
C       4.63       0.47      15.65
C       5.57       4.95      18.62
