43

La       7.44       4.74      18.33
O       5.26       4.99      19.54
C       5.07       2.94      16.61
La       7.41       8.35      20.07
O       9.48       5.98      18.01
O       5.35       7.09      20.35
La       5.70       0.30      18.97
La       8.87      13.37      20.66
O       7.88       3.82      20.68
O       8.17       6.03      20.60
C      10.11       6.94      18.59
O       6.65       6.99      17.74
C       4.71       6.11      19.83
O       6.77       9.22      17.82
O      10.52      14.53      21.96
O       5.39       2.40      20.54
C       8.29       4.90      21.22
C       6.44       8.15      17.20
O       4.32      -1.12      17.48
O       7.96      13.82      18.48
O       9.69      11.23      21.46
O       8.79       9.20      21.87
H       5.08       3.27      20.17
H       6.24       2.63      20.97
C       3.46      -2.06      17.47
C       9.53      10.19      22.19
C       8.96       1.98      18.44
C       2.59      -0.63      20.70
O       9.15       3.07      17.81
O       7.80       1.48      18.62
O       3.77      -0.39      20.21
C       5.84      11.33      20.66
O       7.18      -1.61      18.54
C       7.11      -2.79      19.02
O       5.89      10.06      20.80
O       6.84      12.10      20.86
O       6.68      -0.20      21.16
O       7.20      15.04      21.54
O      10.80      13.23      19.28
C       6.50      -1.07      22.07
O       4.88       2.14      17.59
O       5.95       3.87      16.62
O       9.56       8.03      18.95
