232

C       0.89       3.24       0.12
C       1.92       6.37       3.31
C       2.08       6.17       5.80
C       2.30       5.94       2.03
C       3.14       9.53       0.81
C       2.24       5.61       4.44
C       3.43       8.73      14.90
C       3.86      11.00       2.72
C       2.80       5.97       8.09
C       3.81       9.72       2.14
C       4.29      11.15       4.05
C       3.11       6.02       6.73
C       4.04       8.90      16.15
C       3.82       7.55      14.09
C       3.03       4.75       1.89
C       2.85       4.35       4.27
C       4.71      10.03       4.78
C       3.88       6.00       9.08
C       4.32       8.62       2.85
C       3.26       3.93       3.00
C      16.90      10.18      12.13
C       4.75       8.77       4.17
C       7.53       6.87       9.99
C       8.72       5.09      15.28
C       8.27       2.71      10.38
C       5.82       2.83      14.92
C      11.07      13.38       2.14
C      11.19       9.97       6.71
C      12.71       7.94       1.06
C      14.68       7.90       5.78
C      15.28      10.44       1.64
C      13.03      13.25       7.20
C      16.67       9.57      14.54
C      16.09      10.41      15.51
C      16.23      10.17       0.53
C      16.14       9.60      13.16
C      14.81       9.23      12.91
C      14.24       9.45      11.65
C      15.01      10.00      10.62
C      16.34      10.36      10.86
C      15.15       6.62       6.27
C      15.76       5.89       8.48
C      14.77       6.27       7.57
C      15.37       5.22       9.73
C      15.30       3.82       9.78
C      15.03       3.17      11.00
C      14.84       3.93      12.16
C      14.91       5.32      12.10
C      15.15       5.97      10.89
C      10.21       9.29       7.62
C       8.83       9.23       7.31
C       7.96       8.47       8.12
C       8.46       7.73       9.21
C       9.84       7.81       9.53
C      10.69       8.60       8.75
C      10.41       7.05      10.67
C      10.83       7.72      11.83
C      11.49       7.03      12.84
C      11.74       5.66      12.71
C      11.36       5.00      11.55
C      10.71       5.69      10.52
C       8.28       9.95       6.14
C       7.78      11.25       6.30
C       7.54      12.05       5.17
C       7.77      11.54       3.89
C       8.23      10.23       3.73
C       8.46       9.42       4.85
C      11.66       7.13       0.47
C      11.79       5.74       0.28
C      11.05       5.24      16.09
C       9.84       5.88      15.79
C       9.72       7.28      15.99
C      10.46       7.76       0.17
C       8.48       8.03      15.70
C       8.33       8.62      14.43
C       7.53       9.76      14.27
C       6.96      10.37      15.39
C       6.76       9.56       0.36
C       7.42       8.34       0.49
C      13.10       5.06       0.44
C      13.20       3.95       1.29
C      14.25       3.04       1.13
C      15.51       4.65      15.64
C      14.48       5.57      15.82
C       5.77       1.76      15.96
C       5.59       0.41      15.59
C       9.69      14.06       0.18
C      10.21      14.38       1.45
C       6.09       0.80       1.90
C       5.76       1.83       0.99
C       6.28       1.13       3.32
C       5.30       0.80       4.26
C       5.52       1.05       5.62
C       6.72       1.63       6.04
C       7.69       1.98       5.10
C       7.48       1.73       3.74
C       8.98      14.98      14.32
C       9.74      14.83      13.15
C       9.10      14.80      11.90
C       7.70      14.81      11.83
C       6.94      14.89      13.00
C       7.58      14.98      14.24
C       9.18       1.68       9.88
C       9.67       1.79       8.55
C       9.66       0.67       7.71
C      13.16      14.38       8.15
C      12.79      14.24       9.51
C       8.98       0.39      10.40
C      11.93      13.11       9.96
C      10.70      12.87       9.31
C       9.78      11.99       9.88
C      10.06      11.36      11.09
C      11.30      11.56      11.71
C      12.24      12.42      11.14
C      10.09       3.10       8.00
C      11.44       3.30       7.67
C      11.82       4.42       6.92
C      10.87       5.37       6.55
C       9.52       5.17       6.87
C       9.13       4.03       7.58
H       2.09       6.55       1.17
H       1.15       3.23       8.89
H      14.98       2.09      11.04
H       3.54      11.87       2.17
H       1.96       4.83      14.90
H       3.60      10.50      12.32
H       4.30      12.13       4.51
H       2.03       2.77      16.27
H       5.86      14.90      12.94
H       3.05       3.72       5.12
H       3.40       4.46       0.92
H      16.93      10.80      10.06
H       5.03      10.14       5.80
H       3.76       2.98       2.87
H       4.57       3.92      11.98
H       7.52       6.58      12.99
H      14.51      11.83       4.18
H      11.09       9.68       3.33
H      15.21      10.99      15.26
H       4.55       8.05       0.12
H      13.22       9.17      11.46
H      14.58      10.16       9.64
H      14.20       8.79      13.69
H       4.38       7.65       2.39
H       5.12       7.92       4.72
H       4.13       5.89       6.39
H      13.76       6.45       7.91
H      15.77       7.33       3.41
H      15.22       7.04      10.86
H      14.77       5.91      13.00
H      14.63       3.43      13.10
H       6.91       8.42       7.87
H      11.74       8.66       9.01
H       7.18      13.06       5.29
H       7.61      12.16       3.02
H       8.46       9.85       2.75
H       8.85       8.42       4.72
H       7.62      11.66       7.29
H      10.65       8.78      11.93
H      11.84       7.56      13.72
H      10.47       5.18       9.61
H      11.59       3.95      11.43
H      12.25       5.13      13.50
H      11.15       4.18      15.93
H      10.35       8.83       0.33
H      14.31       2.16       1.76
H      14.44       6.47      15.21
H      12.43       3.75       2.02
H       8.91       8.26      13.60
H       7.42      10.20      13.29
H       7.53       7.89       1.48
H       6.38      10.07       1.23
H       6.40      11.29      15.27
H       9.99      13.27      16.15
H       5.82       2.86       1.31
H       9.69      14.81      11.00
H       7.21      14.77      10.87
H       6.98      15.10      15.14
H      10.82      14.83      13.20
H       4.37       0.34       3.95
H       4.76       0.78       6.35
H       8.24       1.99       3.02
H       8.62       2.42       5.42
H       6.89       1.81       7.09
H      10.04       0.76       6.70
H       8.71       0.28      11.44
H      12.85       4.52       6.60
H      11.17       6.24       5.99
H       8.78       5.90       6.56
H       8.08       3.86       7.76
H      12.19       2.57       7.96
H      10.43      13.42       8.42
H       8.82      11.83       9.40
H      13.19      12.58      11.64
H      11.52      11.07      12.65
H       9.32      10.72      11.55
O       3.67       6.47      10.29
O       4.06       7.67      12.80
O       4.13       6.44      14.71
O       7.56       5.15      15.89
O       8.86       4.39      14.16
O       5.38       4.42      11.70
O       7.04       2.66       9.95
O       6.57       2.67      13.87
O       8.58       3.47      11.42
O       5.14       3.94      15.08
O       5.06       5.58       8.74
O       6.72       6.02      13.13
O       6.46       7.41      10.55
O       7.65       5.56       9.94
O      12.95       9.12       0.52
O      13.04       7.72       2.31
O      13.86      11.20       4.57
O      15.23       9.00       6.23
O      15.19       9.56       2.60
O      13.65       7.95       4.97
O      14.35      11.35       1.50
O      13.37      12.05       7.60
O      12.52      13.45       6.00
O      11.87      10.28       3.23
O      12.00      12.77       1.43
O      10.84      11.02       5.99
O      11.08      13.29       3.47
O      12.42       9.51       6.67
Zn       7.23       4.17      12.77
Zn       5.91       4.22       9.81
Zn       5.22       6.41      11.75
Zn       6.02       5.94      14.99
Zn      13.54       9.33       3.61
Zn      14.23      10.71       6.44
Zn      12.01      11.88       4.60
Zn      12.26      10.80       1.34
