228

Zn      20.18      12.16      17.47
Zn      16.67       7.39       1.91
Zn      17.03      20.45      12.31
Zn      11.49       4.79      13.45
Zn      24.20      14.34       8.29
Zn       7.65      15.22       6.83
Zn      21.56       5.21       8.49
Zn      20.99       6.87      10.88
Zn      14.69      18.35       3.34
Zn      17.15      17.10       4.51
Zn      10.68      12.33      17.26
Zn      12.16      14.46      15.80
H      15.84      12.95      17.48
H       8.19       8.54       2.85
H      12.43       7.84       3.33
H       8.55       9.38       4.99
H      20.94       9.01      14.85
H      22.84       5.17      14.74
H      17.69       3.60       0.50
H      17.28       1.34       1.19
H      16.64      19.56       8.01
H      10.38       3.96       4.96
H      10.81       5.30       9.05
H      11.29       6.08       4.65
H      14.19      18.21      14.39
H      10.98      18.70      17.19
H       8.10       3.83      15.68
H       5.82       4.54      15.73
H      23.22      10.10       9.06
H       6.53       6.72       7.76
H       7.95      10.73       7.00
H       8.82       6.47       8.15
H      21.30      15.92       5.75
H      20.93      17.99       2.01
H       5.82      16.75       3.42
H       5.91      16.31       1.07
H       7.15      19.16       8.51
H      24.85      16.74      11.82
H      20.31       2.68      12.29
H      25.76      16.87      13.96
H      18.72       6.78       5.87
H      15.50       9.61       5.77
H      17.60       8.86       9.47
H      15.32       9.06      10.16
H      13.70       3.65      16.98
H      21.02      20.05      13.94
H      17.43      16.33       0.09
H      23.30      20.38      13.63
H      11.80      16.19       5.42
H      11.43      12.96       8.21
H      15.32      14.08       6.71
H      15.41      11.69       6.76
H      20.36       8.71       0.08
H      22.67      15.61      16.73
H       7.90      15.93      15.95
H      23.03      17.89      17.12
H      11.44       9.11      14.72
H      13.34       8.21      10.98
H      13.16      12.30      12.39
H      12.75      12.50      10.04
C      13.13       8.39       0.77
C      11.78       8.48       1.38
C      10.70       8.89       0.58
C       9.41       8.90       1.12
C       9.21       8.55       2.46
C      10.28       8.19       3.28
C      11.57       8.14       2.73
C       8.24       9.21       0.25
C       9.99       7.80       4.68
C       9.02       8.50       5.42
C      21.36       9.56      17.45
C      21.77       8.33      16.73
C      21.48       8.22      15.36
C      21.87       7.08      14.65
C      22.56       6.05      15.31
C      22.84       6.13      16.69
C      22.44       7.28      17.39
C      23.49       4.99      17.37
C      18.06       0.78       0.69
C      21.52       6.97      13.22
C      11.51       2.91      10.09
C      11.25       3.23       8.66
C      11.37       2.21       7.71
C      11.05       2.49       6.37
C      10.66       3.78       6.00
C      10.59       4.82       6.94
C      10.87       4.53       8.28
C      11.04       1.39       5.37
C      10.14       6.15       6.48
C      10.56       6.64       5.23
C      14.83      20.82      14.10
C      13.74      20.25      14.95
C      13.56      18.87      14.99
C      12.57      18.32      15.80
C      11.76      19.15      16.58
C      11.91      20.55      16.54
C      12.92      21.09      15.72
C      10.97      21.41      17.30
C       5.48       4.23      16.72
C      12.37      16.84      15.80
C       5.82      12.02       8.06
C       6.06      10.55       8.02
C       5.11       9.69       8.58
C       5.29       8.31       8.48
C       6.43       7.79       7.86
C       7.42       8.65       7.34
C       7.22      10.03       7.41
C       4.23       7.38       8.97
C       8.59       8.03       6.67
C       9.17       6.86       7.20
C      23.98      15.63       5.75
C      23.15      16.28       4.69
C      21.77      16.35       4.87
C      20.98      16.98       3.90
C      21.57      17.53       2.76
C      22.96      17.44       2.55
C      23.74      16.81       3.53
C      23.54      17.96       1.29
C       5.53      17.22       0.62
C      19.50      17.01       4.09
C      21.02       3.20       9.73
C      25.73      20.22      10.34
C      25.84      19.07       9.55
C      25.52      17.82      10.09
C      25.14      17.72      11.43
C      25.07      18.85      12.25
C      25.35      20.11      11.69
C      25.52      16.61       9.22
C      24.61      18.68      13.65
C      25.03      17.55      14.39
C      19.36       7.04       8.48
C      18.27       7.75       7.75
C      18.09       7.50       6.39
C      17.10       8.18       5.68
C      16.28       9.11       6.34
C      16.44       9.36       7.71
C      17.44       8.67       8.41
C      15.50      10.29       8.40
C      14.98       9.96       9.66
C      16.90       7.87       4.24
C      15.30      17.63       1.12
C      20.52      21.07      17.64
C      19.57      21.45      16.68
C      19.76      21.07      15.35
C      20.91      20.37      14.97
C      21.89      20.03      15.92
C      21.68      20.38      17.26
C      18.70      21.36      14.34
C      23.06      19.25      15.45
C      23.65      19.53      14.20
C      14.48      16.13       5.14
C      13.65      15.22       5.99
C      12.27      15.41       6.02
C      11.48      14.60       6.83
C      12.07      13.60       7.61
C      13.46      13.38       7.57
C      14.24      14.21       6.75
C      14.04      12.25       8.33
C      15.03      11.44       7.75
C      10.00      14.79       6.82
C       8.60      13.55      17.02
C      26.25      14.16      16.98
C      25.17      13.46      17.54
C      23.88      14.00      17.45
C      23.68      15.24      16.83
C      24.76      15.97      16.31
C      26.04      15.41      16.37
C      22.71      13.21      17.93
C      24.47      17.26      15.64
C      23.50      18.12      16.17
C      11.87      11.77      14.72
C      12.27      10.81      13.66
C      11.98       9.45      13.84
C      12.37       8.52      12.87
C      13.06       8.95      11.73
C      13.34      10.32      11.53
C      12.94      11.24      12.51
C      13.99      10.75      10.26
C      13.54      11.90       9.59
C      12.02       7.09      13.06
O      14.12       7.90       1.41
O      18.25      12.61      17.50
O      13.43      13.64      17.11
O       7.09       8.80       0.65
O      20.78       7.87      12.68
O      21.94       5.99      12.50
O      16.53       5.80       0.78
O      20.89      10.52      16.73
O      11.27       3.76      11.02
O      16.96      20.08      10.38
O      16.69      18.68       5.64
O      10.34       1.57       4.30
O      13.05      16.12      14.98
O      11.53      16.28      16.59
O       9.92       3.75      13.97
O      15.63      19.97      13.57
O       6.59      12.83       7.44
O      23.80      12.45       8.72
O      22.39       7.83       9.81
O       4.23       6.19       8.47
O      18.99      16.39       5.09
O      18.74      17.65       3.28
O       6.22      15.44       5.51
O      23.37      15.32       6.84
O      20.79       4.28      10.37
O      21.48       3.24       8.53
O       7.19      16.66       8.14
O      24.82      15.61       9.62
O      17.57       6.92       3.71
O      16.06       8.54       3.53
O      19.42       7.17       9.75
O      20.16       6.34       7.76
O      16.10      17.26       2.04
O      14.24      18.33       1.41
O      12.89       3.94      14.61
O      18.70      20.63      13.27
O       9.49      15.64       6.01
O       9.24      14.13       7.62
O      15.72      15.85       5.00
O      13.87      17.12       4.60
O       9.59      14.07      16.41
O       8.76      12.45      17.69
O      17.96       8.49       0.83
O      21.56      13.52      17.44
O      11.28       6.76      14.05
O      12.44       6.19      12.25
O      12.00      13.02      14.48
O      11.41      11.27      15.81
