15

C       2.34       2.68       3.63
C       1.51       1.57       3.47
C       1.90       0.34       4.02
C       3.15       0.25       4.63
C       4.50       3.61       4.64
C       1.02      -0.89       4.10
O       1.47      -1.79       4.89
H       2.07       3.68       3.29
H       0.54       1.64       2.98
H       3.47      -0.69       5.08
O      -0.07      -0.94       3.46
N       3.97       1.30       4.74
O       5.59       3.18       5.25
O       4.28       4.80       4.39
C       3.56       2.52       4.28
