18

C       9.22       8.47      12.39
C       8.48       8.19      11.24
C       7.95       9.24      10.48
C       8.19      10.57      10.85
C       8.93      10.82      12.00
C       9.44       9.79      12.79
C       9.82       7.38      13.22
H       8.30       7.16      10.94
H       7.79      11.39      10.27
H      10.01      10.01      13.69
C       7.11       8.95       9.28
N       9.17      12.22      12.42
O      10.42       7.69      14.31
O       9.81       6.16      12.80
O       6.86       7.74       9.00
O       6.67       9.94       8.60
O       8.76      13.12      11.68
O       9.77      12.39      13.50
