18

N      15.48       5.90       1.92
H      16.35      10.96       3.40
H      16.84       6.71       4.07
H      14.65       8.11       0.65
O      14.26      10.45       0.02
O      14.82      11.95       1.58
O      17.81      10.37       5.33
O      17.98       8.17       5.75
O      15.89       5.00       2.67
O      14.88       5.72       0.85
C      15.43       9.65       1.95
C      16.18       9.93       3.10
C      16.70       8.87       3.86
C      16.46       7.54       3.49
C      15.72       7.30       2.34
C      15.21       8.33       1.55
C      14.83      10.74       1.14
C      17.55       9.16       5.06
