636

Zn      12.68      21.12      29.48
Zn      21.14      29.50      12.60
Zn      29.54      12.63      21.07
Zn       4.20       4.19       4.18
Zn      14.48      19.30      31.29
Zn      19.32      31.31      14.40
Zn      31.34      14.43      19.25
Zn       2.39       2.38       2.38
Zn      10.87      22.92      27.65
Zn      22.93      27.67      10.79
Zn       6.00       5.99       5.98
Zn      27.71      10.83      22.87
H      11.29      22.95      32.59
H      14.66      21.69       1.23
H      12.21      24.98       2.58
H       8.81      27.70       1.96
H       5.57      29.10      33.18
H       6.05      27.29      31.54
H       7.95      25.72      31.93
H      22.55      27.64      15.71
H      19.12      28.85      18.00
H      21.57      25.58      19.38
H      24.97      22.82      18.80
H      28.26      21.47      16.36
H      27.77      23.28      14.72
H      25.87      24.84      15.11
H      28.10      10.82      17.96
H      31.51      11.99      15.62
H      29.01       8.73      14.29
H      25.63       6.01      14.88
H      22.34       4.66      17.31
H      22.83       6.46      18.96
H      24.72       8.03      18.58
H       5.64       6.05       1.09
H       2.28       4.90      32.44
H       4.73       8.19      31.10
H       8.13      10.92      31.69
H      11.37      12.21       0.47
H      10.89      10.40       2.11
H       8.98       8.84       1.73
H      22.97      32.60      11.20
H      21.72       1.26      14.62
H      25.00       2.60      12.16
H      27.72       1.97       8.76
H      29.11      33.19       5.47
H      27.30      31.55       5.95
H      25.73      31.94       7.86
H      27.67      15.74      22.48
H      28.89      18.03      19.04
H      25.62      19.41      21.50
H      22.86      18.84      24.90
H      21.52      16.40      28.19
H      23.33      14.76      27.71
H      24.89      15.15      25.81
H      10.86      18.01      28.05
H      12.05      15.67      31.46
H       8.78      14.33      28.98
H       6.05      14.92      25.60
H       4.69      17.35      22.31
H       6.50      18.99      22.78
H       8.07      18.62      24.68
H       6.06       1.10       5.63
H       4.91      32.44       2.22
H       8.20      31.11       4.67
H      10.93      31.71       8.06
H      12.22       0.49      11.35
H      10.42       2.13      10.87
H       8.85       1.74       8.97
H      32.64      11.24      22.90
H       1.29      14.65      21.69
H       2.64      12.20      24.98
H       2.02       8.80      27.70
H      33.24       5.52      29.04
H      31.60       6.00      27.23
H      31.99       7.90      25.67
H      15.79      22.52      27.61
H      18.08      19.09      28.82
H      19.46      21.54      25.55
H      18.88      24.94      22.79
H      16.44      28.23      21.45
H      14.80      27.75      23.26
H      15.19      25.85      24.82
H      18.03      28.07      10.79
H      15.69      31.48      11.97
H      14.35      28.99       8.71
H      14.93      25.61       5.98
H      17.36      22.32       4.63
H      19.00      22.79       6.43
H      18.63      24.69       8.00
H       1.11       5.64       6.05
H      32.45       2.23       4.85
H      31.12       4.68       8.14
H      31.73       8.08      10.87
H       0.51      11.37      12.20
H       2.14      10.88      10.39
H       1.76       8.98       8.83
H      14.52      19.69      26.38
H      13.34      23.09      24.04
H      16.61      20.60      22.71
H      19.34      17.23      23.28
H      20.70      13.94      25.71
H      18.89      14.42      27.35
H      17.33      16.31      26.98
H      19.26      30.90       9.50
H      20.46      27.47       7.19
H      17.17      29.92       5.85
H      14.45      33.32       6.45
H      13.06       2.95       8.89
H      14.87       2.47      10.52
H      16.43       0.57      10.14
H       2.38       2.80       7.32
H       3.59       6.21       9.63
H       0.30       3.76      10.98
H      31.24       0.36      10.37
H      29.95      30.74       7.93
H      31.75      31.22       6.29
H      33.32      33.12       6.67
H      31.36      14.08      24.16
H      30.16      10.67      26.48
H      33.45      13.13      27.81
H       2.52      16.52      27.21
H       3.86      19.81      24.77
H       2.05      19.33      23.13
H       0.49      17.43      23.51
H      24.23      31.32      14.04
H      26.55      30.12      10.63
H      27.89      33.41      13.08
H      27.24       2.47      16.48
H      24.81       3.82      19.77
H      23.16       2.01      19.29
H      23.54       0.45      17.39
H       7.32       2.37       2.78
H       9.65       3.57       6.20
H      10.98       0.28       3.74
H      10.42      31.23       0.35
H       8.03      29.93      30.72
H       6.39      31.74      31.21
H       6.78      33.31      33.10
H       9.58      19.25      30.88
H       7.27      20.45      27.46
H       5.93      17.16      29.91
H       6.53      14.44      33.31
H       8.91      13.04       2.94
H      10.55      14.85       2.46
H      10.17      16.41       0.55
H      26.44      14.48      19.64
H      24.10      13.30      23.05
H      22.77      16.57      20.57
H      23.34      19.30      17.19
H      25.76      20.65      13.90
H      27.41      18.85      14.37
H      27.03      17.28      16.27
H       2.80       7.32       2.36
H       6.22       9.64       3.56
H       3.76      10.98       0.27
H       0.41      10.42      31.23
H      30.79       7.98      29.88
H      31.27       6.34      31.69
H      33.17       6.72      33.25
H      14.13      24.21      31.30
H      10.72      26.53      30.10
H      13.18      27.87      33.38
H      16.52      27.21       2.44
H      19.82      24.77       3.79
H      19.33      23.13       1.98
H      17.43      23.51       0.42
H      19.71      26.41      14.45
H      23.11      24.06      13.26
H      20.63      22.74      16.54
H      17.26      23.31      19.27
H      13.97      25.74      20.63
H      14.45      27.39      18.82
H      16.34      27.01      17.25
H      30.93       9.53      19.20
H      27.50       7.22      20.40
H      29.95       5.88      17.11
H      33.35       6.47      14.38
H       2.97       8.91      13.04
H       2.50      10.55      14.85
H       0.60      10.17      16.41
C      11.92      23.08      33.46
C      13.03      22.25      33.65
C      13.80      22.35       1.10
C      13.53      23.35       2.05
C      12.42      24.20       1.86
C      11.58      24.04       0.74
C      13.34      21.23      32.61
C      10.48      24.92       0.54
C       9.55      25.68       0.36
C       8.19      27.60       1.07
C       7.13      28.50       0.84
C       6.39      28.40      33.35
C       6.66      27.39      32.44
C       7.72      26.51      32.65
C       8.47      26.57       0.14
C      15.13      23.71       4.11
C      14.38      23.54       3.17
C      21.92      27.51      16.59
C      20.81      28.34      16.76
C      19.98      28.20      17.88
C      20.25      27.20      18.84
C      21.37      26.36      18.65
C      22.21      26.51      17.53
C      20.49      29.36      15.72
C      23.30      25.63      17.35
C      24.23      24.84      17.20
C      25.58      22.92      17.91
C      26.64      22.02      17.68
C      27.44      22.17      16.53
C      27.16      23.18      15.61
C      26.10      24.06      15.82
C      25.30      23.95      16.99
C      18.66      26.84      20.91
C      19.40      27.02      19.96
C      28.72      10.68      17.08
C      29.83      11.50      16.88
C      30.65      11.35      15.76
C      30.36      10.35      14.81
C      29.24       9.52      15.01
C      28.41       9.67      16.14
C      30.18      12.52      17.92
C      27.31       8.80      16.33
C      26.38       8.03      16.49
C      25.02       6.11      15.77
C      23.96       5.21      15.99
C      23.16       5.35      17.14
C      23.44       6.37      18.06
C      24.50       7.25      17.86
C      25.30       7.13      16.70
C      31.94       9.98      12.73
C      31.20      10.16      13.68
C       5.02       6.18       0.21
C       3.91       5.35       0.03
C       3.14       5.56      32.57
C       3.41       6.56      31.62
C       4.52       7.40      31.82
C       5.36       7.25      32.94
C       3.59       4.33       1.07
C       6.46       8.12      33.13
C       7.39       8.90      33.29
C       8.75      10.81      32.59
C       9.80      11.72      32.81
C      10.55      11.51       0.30
C      10.27      10.50       1.22
C       9.21       9.62       1.01
C       8.47       9.79      33.51
C       1.80       6.91      29.56
C       2.56       6.74      30.51
C      23.10      33.48      11.82
C      22.27      33.67      12.93
C      22.37       1.13      13.76
C      23.38       2.07      13.49
C      24.22       1.88      12.37
C      24.06       0.76      11.54
C      21.25      32.63      13.25
C      24.93       0.56      10.44
C      25.70       0.38       9.50
C      27.61       1.08       8.14
C      28.51       0.85       7.09
C      28.41      33.36       6.29
C      27.40      32.45       6.57
C      26.52      32.66       7.63
C      26.58       0.16       8.42
C      23.74       4.14      15.09
C      23.56       3.19      14.34
C      27.55      16.62      21.85
C      28.38      16.79      20.73
C      28.23      17.91      19.90
C      27.24      18.87      20.17
C      26.40      18.69      21.29
C      26.54      17.57      22.13
C      29.39      15.75      20.42
C      25.66      17.39      23.23
C      24.88      17.24      24.16
C      22.96      17.95      25.52
C      22.06      17.73      26.57
C      22.21      16.57      27.38
C      23.23      15.66      27.10
C      24.11      15.87      26.04
C      23.99      17.03      25.24
C      26.87      20.94      18.58
C      27.05      19.99      19.32
C      10.73      17.12      28.67
C      11.55      16.93      29.79
C      11.40      15.81      30.60
C      10.40      14.86      30.31
C       9.56      15.06      29.20
C       9.72      16.18      28.37
C      12.57      17.97      30.13
C       8.85      16.38      27.27
C       8.07      16.53      26.34
C       6.15      15.81      24.99
C       5.25      16.03      23.93
C       5.39      17.18      23.12
C       6.40      18.10      23.40
C       7.29      17.90      24.46
C       7.17      16.74      25.26
C      10.03      12.78      31.91
C      10.21      13.73      31.16
C       6.19       0.22       5.01
C       5.36       0.04       3.90
C       5.56      32.58       3.07
C       6.57      31.63       3.35
C       7.41      31.83       4.46
C       7.26      32.95       5.30
C       4.33       1.07       3.58
C       8.13      33.14       6.39
C       8.91      33.31       7.32
C      10.83      32.60       8.67
C      11.73      32.82       9.73
C      11.53       0.32      10.53
C      10.51       1.23      10.25
C       9.63       1.02       9.19
C       9.80      33.52       8.40
C       6.91      29.57       1.74
C       6.75      30.51       2.50
C      33.52      11.86      23.03
C      33.70      12.97      22.20
C       1.16      13.80      22.35
C       2.11      13.52      23.35
C       1.92      12.41      24.19
C       0.80      11.58      24.04
C      32.67      13.29      21.18
C       0.60      10.48      24.91
C       0.42       9.55      25.68
C       1.13       8.19      27.59
C       0.90       7.13      28.50
C      33.41       6.33      28.35
C      32.49       6.61      27.33
C      32.70       7.67      26.45
C       0.20       8.47      26.57
C       4.18      15.13      23.70
C       3.23      14.37      23.53
C      16.67      21.89      27.48
C      16.84      20.78      28.31
C      17.96      19.95      28.17
C      18.92      20.22      27.17
C      18.73      21.33      26.33
C      17.61      22.18      26.48
C      15.80      20.46      29.33
C      17.43      23.27      25.60
C      17.28      24.20      24.82
C      17.99      25.55      22.89
C      17.76      26.61      21.99
C      16.61      27.41      22.14
C      15.70      27.14      23.16
C      15.91      26.08      24.04
C      17.07      25.28      23.92
C      20.99      18.63      26.81
C      20.04      19.37      26.99
C      17.14      28.69      10.65
C      16.95      29.81      11.47
C      15.82      30.62      11.32
C      14.87      30.33      10.32
C      15.07      29.21       9.49
C      16.20      28.38       9.65
C      17.99      30.15      12.49
C      16.39      27.28       8.78
C      16.54      26.35       8.00
C      15.82      24.99       6.08
C      16.04      23.94       5.18
C      17.19      23.13       5.33
C      18.11      23.41       6.34
C      17.91      24.47       7.22
C      16.75      25.27       7.11
C      12.80      31.92       9.96
C      13.75      31.17      10.14
C       0.23       5.02       6.18
C       0.04       3.91       5.35
C      32.59       3.08       5.50
C      31.64       3.36       6.51
C      31.84       4.47       7.35
C      32.96       5.31       7.19
C       1.08       3.59       4.33
C      33.16       6.40       8.07
C      33.32       7.34       8.84
C      32.62       8.69      10.76
C      32.84       9.75      11.66
C       0.33      10.55      11.51
C       1.25      10.27      10.50
C       1.04       9.21       9.62
C      33.54       8.41       9.73
C      29.58       1.75       6.86
C      30.52       2.51       6.69
C      14.66      20.30      25.50
C      13.83      21.41      25.30
C      13.99      22.23      24.18
C      14.99      21.94      23.23
C      15.83      20.83      23.43
C      15.67      20.00      24.56
C      12.80      21.74      26.33
C      16.54      18.90      24.75
C      17.32      17.97      24.89
C      19.24      16.62      24.17
C      20.14      15.56      24.39
C      20.00      14.76      25.54
C      18.99      15.03      26.46
C      18.11      16.09      26.26
C      18.22      16.89      25.10
C      15.37      23.52      21.15
C      15.18      22.78      22.10
C      19.13      30.27       8.62
C      19.96      29.16       8.44
C      19.81      28.33       7.32
C      18.80      28.60       6.37
C      17.96      29.71       6.57
C      18.12      30.55       7.69
C      20.98      28.85       9.47
C      17.24      31.65       7.88
C      16.47      32.58       8.05
C      14.50       0.27       7.34
C      13.60       1.33       7.57
C      13.75       2.14       8.72
C      14.77       1.86       9.63
C      15.64       0.80       9.42
C      15.58      33.66       8.26
C      18.43      27.00       4.31
C      18.61      27.75       5.26
C       2.25       3.42       8.20
C       3.08       4.53       8.38
C       2.93       5.36       9.50
C       1.93       5.08      10.45
C       1.08       3.97      10.26
C       1.24       3.13       9.13
C       4.10       4.85       7.34
C       0.36       2.04       8.94
C      33.26       1.10       8.77
C      31.40      33.41       9.48
C      30.50      32.36       9.25
C      30.64      31.55       8.10
C      31.65      31.83       7.18
C      32.54      32.89       7.39
C      32.37       0.03       8.55
C       1.58       6.69      12.51
C       1.75       5.93      11.57
C      31.49      13.46      25.04
C      30.66      12.35      25.22
C      30.82      11.53      26.35
C      31.82      11.80      27.29
C      32.66      12.92      27.09
C      32.51      13.75      25.97
C      29.64      12.03      24.19
C      33.38      14.85      25.77
C       0.49      15.78      25.61
C       2.41      17.13      26.32
C       3.32      18.19      26.09
C       3.16      18.99      24.94
C       2.15      18.71      24.02
C       1.27      17.65      24.23
C       1.39      16.86      25.39
C      32.18      10.21      29.36
C      32.01      10.96      28.41
C      25.11      31.45      13.42
C      25.30      30.62      12.31
C      26.42      30.77      11.48
C      27.36      31.78      11.76
C      27.17      32.62      12.87
C      26.05      32.47      13.71
C      24.26      29.60      11.99
C      25.85      33.34      14.80
C      25.64       0.45      15.74
C      26.35       2.37      17.09
C      26.13       3.27      18.15
C      24.98       3.12      18.95
C      24.06       2.11      18.68
C      24.26       1.23      17.61
C      25.42       1.34      16.81
C      29.43      32.13      10.16
C      28.48      31.96      10.91
C       8.20       2.23       3.41
C       8.39       3.06       4.52
C       9.51       2.91       5.34
C      10.46       1.91       5.07
C      10.26       1.07       3.95
C       9.14       1.22       3.12
C       7.36       4.09       4.84
C       8.94       0.35       2.02
C       8.82      33.24       1.09
C       9.58      31.38      33.40
C       9.36      30.48      32.34
C       8.20      30.63      31.54
C       7.29      31.64      31.82
C       7.50      32.52      32.88
C       8.60      32.35       0.01
C      12.53       1.56       6.66
C      11.58       1.73       5.91
C       8.70      19.12      30.25
C       8.52      19.95      29.14
C       7.40      19.79      28.31
C       6.45      18.79      28.59
C       6.65      17.95      29.70
C       7.77      18.10      30.54
C       9.56      20.97      28.83
C       7.96      17.23      31.64
C       8.13      16.46      32.57
C       7.37      14.49       0.26
C       7.59      13.59       1.32
C       8.74      13.74       2.12
C       9.66      14.75       1.84
C       9.45      15.63       0.78
C       8.34      15.57      33.65
C       4.39      18.42      26.99
C       5.33      18.60      27.74
C      25.55      14.62      20.26
C      25.36      13.79      21.37
C      24.24      13.95      22.19
C      23.29      14.96      21.91
C      23.49      15.79      20.79
C      24.62      15.63      19.96
C      26.39      12.76      21.69
C      24.81      16.50      18.86
C      24.95      17.28      17.93
C      24.23      19.20      16.58
C      24.45      20.10      15.52
C      25.60      19.96      14.72
C      26.52      18.94      14.99
C      26.31      18.06      16.05
C      25.16      18.18      16.85
C      21.21      15.33      23.49
C      22.17      15.15      22.75
C       3.42       8.20       2.23
C       4.54       8.38       3.06
C       5.36       9.50       2.91
C       5.09      10.45       1.90
C       3.97      10.26       1.06
C       3.14       9.14       1.22
C       4.86       7.35       4.08
C       2.04       8.94       0.35
C       1.16       8.82      33.24
C      33.46       9.53      31.33
C      32.41       9.30      30.43
C      31.60       8.15      30.58
C      31.88       7.23      31.59
C      32.94       7.44      32.47
C       0.08       8.60      32.35
C       6.69      12.52       1.55
C       5.94      11.57       1.72
C      13.51      25.09      31.43
C      12.40      25.27      30.60
C      11.58      26.40      30.75
C      11.86      27.34      31.76
C      12.97      27.15      32.60
C      13.80      26.02      32.44
C      12.08      24.24      29.58
C      14.90      25.83      33.32
C      15.78      25.61       0.43
C      17.14      26.32       2.34
C      18.20      26.10       3.24
C      19.00      24.94       3.09
C      18.72      24.03       2.08
C      17.66      24.24       1.20
C      16.86      25.40       1.32
C      10.26      29.41      32.11
C      11.01      28.47      31.94
C      20.33      25.52      14.58
C      21.44      25.33      13.76
C      22.25      24.20      13.91
C      21.97      23.25      14.92
C      20.85      23.46      15.75
C      20.02      24.59      15.60
C      21.76      26.35      12.72
C      18.93      24.78      16.47
C      18.00      24.92      17.25
C      16.65      24.20      19.17
C      15.59      24.42      20.08
C      14.79      25.57      19.93
C      15.06      26.49      18.92
C      16.12      26.29      18.04
C      16.92      25.13      18.15
C      23.55      21.17      15.29
C      22.81      22.13      15.11
C      30.30       8.65      19.07
C      29.19       8.47      19.90
C      28.36       7.35      19.75
C      28.63       6.40      18.74
C      29.74       6.60      17.90
C      30.58       7.72      18.05
C      28.88       9.51      20.92
C      31.68       7.91      17.18
C      32.61       8.07      16.40
C       0.30       7.36      14.49
C       1.35       7.59      13.58
C       2.16       8.74      13.73
C       1.88       9.66      14.75
C       0.82       9.45      15.63
C      33.69       8.29      15.51
C      27.03       4.34      18.38
C      27.78       5.29      18.56
O      12.58      21.10      31.60
O      14.39      20.50      32.80
O      21.25      29.48      14.71
O      19.44      30.09      15.90
O      29.44      12.65      18.94
O      31.23      13.25      17.71
O       4.35       4.21       2.08
O       2.54       3.60       0.87
O      21.12      31.62      12.49
O      20.52      32.83      14.30
O      29.51      14.74      21.18
O      30.12      15.93      19.36
O      12.70      18.99      29.39
O      13.30      17.76      31.18
O       4.22       2.08       4.34
O       3.60       0.87       2.53
O      31.66      12.53      21.04
O      32.86      14.34      20.44
O      14.79      21.22      29.46
O      15.98      19.41      30.06
O      19.01      29.41      12.62
O      17.78      31.20      13.22
O       2.09       4.34       4.21
O       0.88       2.54       3.59
O      12.70      21.01      27.37
O      12.04      22.76      26.11
O      21.11      29.61      10.49
O      21.72      27.80       9.28
O       4.22       4.11       6.32
O       4.84       5.90       7.54
O      29.52      12.78      23.18
O      28.91      10.98      24.38
O      23.25      29.48      12.75
O      24.45      28.87      10.94
O       6.33       4.21       4.10
O       7.56       4.82       5.88
O      10.57      21.09      29.59
O       9.36      21.70      27.78
O      27.43      12.66      20.97
O      26.16      11.99      22.71
O       4.11       6.33       4.20
O       5.90       7.55       4.81
O      12.83      23.22      29.46
O      11.03      24.43      28.85
O      21.03      27.39      12.62
O      22.78      26.13      11.96
O      29.64      10.52      21.04
O      27.83       9.32      21.66
