78

Ho       9.48       7.73       9.37
Ho       7.99       5.62       1.77
Cu       1.39       3.98      11.20
Cu      11.46       2.00       5.59
H       4.75       8.61       5.36
H      13.55       7.40       6.41
H      12.76      10.96       8.69
H       9.38       2.69       7.47
H      13.21       5.94       9.15
H       4.68       7.00       8.60
H       4.97       0.93       0.75
H       7.98       9.40       1.23
H      12.72       4.77       5.83
H       3.93       5.97       4.79
H       4.71       2.42       2.51
H       8.09      10.69       3.72
H       4.25       7.42       2.06
H      12.78       6.37       2.59
H      12.51      12.46      10.44
H       9.51       3.98       9.97
C       7.43      10.84       8.04
C       7.52      11.23       9.38
C       7.96       9.72       7.20
C       8.08      10.66      10.61
C      14.87       9.09       6.09
C      13.80       8.43       6.69
C      13.04       9.10       7.65
C      13.35      10.43       7.95
C      14.41      11.04       7.29
C      11.89       8.46       8.38
C       3.34       5.76       9.75
C       4.57       6.33       9.45
C       5.68       6.02      10.24
C       4.12       1.19       0.13
C       2.86       0.68       0.39
C       7.03       6.55       9.86
C      10.03       2.55       3.13
C       9.94       2.15       1.79
C       9.48       3.67       3.99
C       9.40       2.71       0.56
C       2.60       4.29       5.10
C       3.68       4.95       4.51
C       4.44       4.28       3.55
C       4.12       2.95       3.25
C       3.06       2.34       3.90
C       5.59       4.91       2.82
C      14.13       7.62       1.45
C      12.90       7.05       1.75
C      11.79       7.37       0.96
C      13.35      12.19      11.07
C      14.62      12.70      10.81
C      10.43       6.83       1.32
N       6.66      11.77       7.44
N      11.75       3.34       8.31
N       6.81      12.39       9.49
N      15.17      10.37       6.40
N       3.18       4.93      10.81
N      10.79       1.61       3.75
N       5.70      10.04       2.89
N      10.65       0.98       1.70
N       2.30       3.01       4.79
N      14.29       8.45       0.39
O       7.45       9.56       6.07
O       8.95       9.04       7.67
O       8.71       9.54      10.59
O       6.53       7.28       0.51
O      11.40       7.35       7.96
O      11.43       9.07       9.40
O       8.07       6.08      10.44
O       7.11       7.44       8.96
O      10.00       3.81       5.12
O       8.50       4.35       3.52
O       8.77       3.83       0.56
O      10.94       6.07      10.66
O       6.10       6.00       3.23
O       6.04       4.29       1.79
O       9.40       7.30       0.73
O      10.34       5.94       2.22
