11

O       0.73      -0.68      19.92
Zn       2.34      -1.54      19.17
O       2.96      -2.90      20.44
C      -0.25      -1.53      20.11
C       0.73      -1.98      16.75
C       4.04      -3.50      20.02
C       2.98      -2.42      16.37
N       1.99      -2.05      17.22
N       3.73      -0.01      19.41
C       3.42       0.92      20.33
C       4.94       0.05      18.82
