104

Cu       3.44      10.16      11.12
Cu       4.86       3.20       6.68
Cu       9.14       7.40       0.09
Cu       7.72      14.37       4.53
H       5.00      12.53       7.37
H       4.25      11.03       6.82
H      10.67      12.34       6.37
H      11.45      13.78       7.01
H       2.91      13.79       4.54
H       3.76      12.24       4.49
H       2.00       2.71       1.91
H       5.31      13.00       2.09
H       6.28       6.30       9.09
H       4.97       8.41       9.14
H       3.29       5.60       2.94
H       4.05       6.73       4.08
H       6.19       6.59       2.70
H       5.41       5.40       1.66
H       5.39       7.64       0.62
H       4.53       8.34       2.00
H       6.30      14.69       9.55
H       2.99      10.20       0.30
H      10.58       6.67       9.32
H       3.33       5.74       7.43
H       7.57       5.03       3.84
H       8.33       6.53       4.39
H       1.91       5.23       4.84
H       1.13       3.78       4.20
H       9.67       3.78       6.67
H       8.81       5.33       6.72
H      10.58      14.85       9.30
H       7.27       4.57       9.12
H       6.30      11.26       2.12
H       7.61       9.16       2.07
H       9.28      11.96       8.27
H       8.53      10.83       7.13
H       6.39      10.97       8.51
H       7.17      12.16       9.55
H       7.19       9.92      10.59
H       8.05       9.23       9.21
H       6.28       2.88       1.65
H       9.59       7.37      10.91
H       2.00      10.90       1.89
H       9.25      11.83       3.78
C       3.62      11.74       8.73
C       4.05      11.99       7.30
C       3.07      12.84       6.48
C       3.63      13.15       5.08
C       4.96      13.89       5.15
C       2.51       2.31       1.04
C       3.24       1.13       1.12
C       5.90       5.84      11.19
C       5.81       6.61      10.02
C       5.06       7.79      10.03
C       4.68       4.70       4.24
C       4.25       5.89       3.41
C       5.23       6.28       2.29
C       4.67       7.42       1.42
C       3.34       7.05       0.79
C       5.79      15.65       9.55
C       5.06      16.07      10.66
C       2.39       4.96      10.63
C       2.49       5.69       9.43
C       3.23       5.19       8.37
C       8.96       5.82       2.48
C       8.53       5.57       3.91
C       9.51       4.72       4.73
C       8.95       4.41       6.13
C       7.62       3.68       6.06
C      10.07      15.26      10.17
C       9.34      16.44      10.09
C       6.67      11.73       0.02
C       6.77      10.95       1.19
C       7.51       9.78       1.18
C       7.90      12.87       6.97
C       8.33      11.67       7.80
C       7.35      11.28       8.92
C       7.91      10.15       9.79
C       9.24      10.52      10.42
C       6.79       1.92       1.65
C       7.52       1.49       0.55
C      10.19      12.61       0.58
C      10.09      11.87       1.78
C       9.34      12.37       2.84
N       4.41       8.23      11.12
N       3.88       4.01       8.42
N       8.16       9.33       0.09
N       8.70      13.55       2.79
O       3.82      10.57       9.20
O       3.11      12.73       9.37
O       5.10      14.71       6.11
O       5.84      13.61       4.27
O       4.48       4.77       5.50
O       5.19       3.71       3.61
O       3.19       5.83       0.44
O       2.46       7.96       0.66
O       8.76       6.99       2.01
O       9.47       4.84       1.84
O       7.48       2.85       5.10
O       6.74       3.95       6.94
O       8.10      12.80       5.71
O       7.39      13.86       7.60
O       9.38      11.74      10.77
O      10.12       9.60      10.55
