87

H      10.78      11.02      27.09
H      13.15      19.48      33.26
H       8.81       9.15      30.42
H      13.26      13.08      31.86
C      11.92      15.17      30.33
H      12.00      16.18      28.43
H       9.28      15.16      37.77
H       7.02      13.36      31.46
H      12.11      16.31      35.29
H      11.54       9.57      33.80
H      10.30      17.48      29.82
C      10.21      12.28      30.21
H       9.29      17.01      36.24
H      14.22      14.57      31.90
C       8.11      13.35      37.61
C       8.05      12.32      35.40
H       8.01      16.50      33.46
H      11.54      11.33      33.59
C      14.60      19.44      30.98
H       7.14      12.20      30.13
C       9.51      13.59      33.58
C       9.02      11.42      32.13
H       9.94      17.56      34.70
H      12.84      13.41      29.40
C      10.02      16.58      29.26
C      10.21      14.84      33.65
H      11.63      10.28      32.17
C       9.65      10.36      33.09
H       9.24      16.06      29.83
H       7.00      11.57      37.13
H       7.21      10.29      31.81
C       8.94      14.37      37.11
H       7.32      15.96      35.00
C       9.32      10.01      29.99
C       7.47      11.32      32.11
H       9.31       9.38      32.75
C      11.53      15.50      35.74
H      10.91      14.80      28.42
H       7.06      11.46      33.12
C       7.66      12.35      36.74
H      13.78      17.22      29.66
C      10.92      15.31      32.54
C       9.56      12.83      32.40
C       9.30      14.36      35.77
H      11.16      13.06      28.40
C      11.18      10.39      33.16
H      11.36      15.80      36.79
C      12.39      16.39      31.08
C      12.34      14.20      35.69
C       9.66       8.70      27.88
C       8.90      13.33      34.90
C      13.89      13.75      31.26
C      10.44      11.07      28.12
C      13.29      17.34      30.62
C      13.58      18.46      31.42
H      13.28      14.32      36.26
C      11.77      16.50      32.35
H      11.79      13.36      36.13
C      10.28      13.31      31.27
C       9.80       9.95      28.67
C       9.36      16.76      35.17
O       7.13      12.29      39.51
O       8.14      14.26      39.84
C      11.23      15.66      29.02
H       5.71      12.20      31.17
O       9.02       7.69      28.37
O      15.15      19.33      29.82
O      14.95      20.38      31.78
H       7.46      17.70      34.65
O      10.22       8.62      26.73
C       7.76      13.30      39.05
H       9.23      10.49      34.10
H      14.78      13.18      30.96
H      13.83      14.85      29.39
C      10.13      15.41      35.06
H       7.68      11.52      34.77
C       7.96      16.73      34.54
C      13.15      14.26      30.02
C      10.65      12.22      28.87
C      12.93      18.60      32.66
C       9.52      11.17      30.73
C      12.04      17.64      33.12
H       9.59      16.90      28.31
H      11.58      17.80      34.09
H      12.60      13.93      34.66
C      10.97      14.53      31.34
C       6.80      12.33      31.16
