87

C      -6.13       2.19      21.56
C      -6.65       6.85      21.26
H      -4.46       6.74      19.96
H      -3.47       7.23      18.61
H     -10.28       4.79      19.32
H      -6.14       7.57      20.63
C      -9.83       3.50      21.03
H     -11.60       4.67      20.51
C      -9.54      -2.38      16.84
C      -7.95       2.42      14.88
H      -5.67       3.09      21.99
H     -10.30      -1.15      19.12
H      -4.02       0.59      16.82
H      -8.00       2.24      22.65
H     -10.09       3.43      22.10
C      -3.72       6.52      14.53
H      -9.29       3.95      15.69
H      -5.51       0.38      17.77
C      -8.40       1.53      18.21
C      -7.78       4.75      21.63
H      -6.52       8.13      22.99
H      -5.19       2.16      15.27
H      -8.06       7.22      17.32
H      -5.76       1.32      22.12
C     -10.50       4.72      20.40
C      -5.53       5.00      16.07
C      -9.19      -1.01      17.28
H      -3.52       7.77      16.28
C      -4.91       6.15      16.59
C      -5.26       4.64      14.73
H      -3.08       4.77      18.03
H      -2.52       5.20      19.66
C      -7.02       4.95      19.44
H      -5.73       3.79      14.26
C      -7.64       6.60      24.91
C      -5.38       6.45      18.00
C      -4.15       6.44      18.95
C      -7.17       2.07      16.19
C      -8.00       1.05      16.94
H      -8.07       1.34      21.15
H      -9.98       2.32      15.69
C      -7.74       3.72      19.51
C      -4.37       5.40      13.98
C      -7.50       6.28      23.47
H      -5.76       2.10      20.52
C      -7.98       5.05      22.97
C      -2.71       7.26      13.74
C      -3.41       5.10      19.03
C      -7.09       5.61      20.76
H      -6.39       8.13      18.98
C      -6.07       7.85      17.97
H      -4.04       4.32      19.45
C      -8.37      -0.20      16.48
H      -4.70       1.96      17.72
O      -8.28       5.80      25.69
H      -8.01       1.50      14.29
C      -9.25       0.73      18.99
O      -7.08       7.66      25.37
H      -4.15       5.13      12.95
O      -2.15       8.32      14.24
H      -9.62       1.05      19.95
O     -10.17      -3.16      17.64
C      -4.01       6.90      15.85
O      -2.35       6.82      12.60
H      -7.36       3.13      14.28
C      -9.64      -0.52      18.52
O      -9.17      -2.81      15.68
C      -6.33       5.29      18.26
H      -9.84       3.23      14.17
H     -10.24       2.59      20.56
C      -6.86       7.17      22.60
H      -7.71       8.94      17.03
C      -4.96       1.08      17.12
C      -6.38       4.42      17.13
C      -5.78       1.46      15.88
C      -9.34       3.01      15.12
C      -7.80       2.87      18.40
H      -8.49       4.36      23.64
H      -5.94       0.58      15.25
H      -7.00       7.70      15.99
C      -7.66       2.25      21.60
C      -8.28       3.50      20.93
H      -8.02      -0.57      15.52
H     -10.16       5.66      20.86
H      -5.31       8.59      17.67
C      -7.28       7.93      17.02
C      -7.10       3.21      17.20
