87

H      35.26      18.38       1.14
H      35.60      21.97      -4.22
H      35.83      18.12      -4.22
C      38.96      17.91      -1.25
H      35.33      16.24      -0.18
C      33.29      22.54      -1.52
H      37.48      22.48      -0.18
C      30.84      19.99      -2.67
H      37.48      22.76      -2.73
H      36.73      16.73      -4.84
H      31.36      20.11       2.04
C      36.23      16.87      -0.12
H      35.58      16.10      -2.73
C      34.22      24.79      -1.25
H      36.34      22.72       2.04
H      32.89      20.21       1.14
H      37.03      18.39       1.24
H      39.11      16.84      -1.12
C      36.49      22.94      -0.12
H      40.75      20.79      -1.50
H      29.63      17.65      -1.12
H      31.12      22.47      -1.71
C      35.25      21.24      -1.58
C      31.82      24.47      -1.46
C      31.70      19.58      -1.44
C      31.38      19.46      -4.01
C      37.48      19.83      -1.52
H      35.66      21.35       1.14
H      32.38      19.84      -4.22
C      38.60      20.68      -1.58
H      36.66      24.02      -0.04
C      34.39      23.42      -1.39
C      32.92      25.33      -1.27
H      37.07      16.18      -0.04
C      39.88      20.14      -1.46
C      36.49      23.23      -2.67
C      35.37      18.79      -1.58
H      34.19      15.72      -1.71
C      33.04      17.56      -1.52
C      36.02      20.06      -1.59
H      35.07      25.45      -1.12
C      29.67      14.93      -1.06
C      31.73      18.07      -1.39
C      32.70      26.78      -1.06
C      36.15      17.74       1.14
C      33.21      16.17      -1.58
H      31.00      21.22      -0.17
H      31.44      18.36      -4.02
C      35.77      22.44       1.14
C      36.40      17.67      -1.44
C      32.00      23.09      -1.58
H      30.76      21.08      -2.73
C      37.69      18.45      -1.39
C      30.82      15.85      -1.27
C      35.77      23.04      -4.01
C      41.44      18.23      -1.06
O      28.47      15.42      -0.94
H      30.82      24.90      -1.50
O      33.72      27.57      -0.94
H      36.11      17.10       2.04
O      31.51      27.23      -0.94
H      32.02      18.67       1.24
C      33.19      19.91      -1.58
O      29.87      13.68      -0.94
H      37.59      18.04      -4.02
O      41.62      16.95      -0.94
C      36.67      17.44      -4.01
C      35.71      22.69      -1.44
O      42.43      19.03      -0.94
C      40.08      18.77      -1.27
H      34.79      23.53      -4.02
H      30.07      19.74      -0.04
C      32.11      15.33      -1.46
H      37.31      16.02      -2.49
C      33.83      21.16      -1.59
H      36.36      23.45      -4.84
H      38.50      21.75      -1.71
C      36.48      16.72      -2.67
C      31.10      20.13      -0.12
H      32.24      14.25      -1.50
H      36.68      24.30      -2.49
H      29.82      19.61      -2.49
C      31.89      19.76       1.14
C      33.97      18.71      -1.59
C      30.63      17.24      -1.25
H      30.72      19.76      -4.84
H      34.77      22.87       1.24
