272

Mg       7.64       3.99       8.69
Mg       4.42       4.08      10.49
Mg      14.12      12.84      18.06
Mg       2.83      12.75       1.12
Mg       6.86      12.40       0.68
Mg      10.08      12.49      17.62
Mg       0.39       4.42      10.05
Mg      11.68       4.34       8.25
Mg       6.86      12.84      10.05
Mg      10.08      12.75       8.25
Mg       0.39       3.99       0.68
Mg      11.68       4.08      17.62
Mg       7.64       4.42      18.06
Mg       4.42       4.34       1.12
Mg      14.12      12.40       8.69
Mg       2.83      12.49      10.49
H       4.19       8.49       9.69
H       7.19       6.62       7.23
H       7.79       8.84       6.28
H       6.64      10.90       7.09
H       7.16       4.63       4.44
H      11.19       5.93       5.17
H       9.28       6.84       1.41
H      11.24       7.06       2.94
H       3.06       8.33       0.32
H       0.06      10.20      16.60
H      13.96       7.98      15.65
H       0.61       5.92      16.46
H       0.09      12.19      13.81
H      10.56      10.90      14.54
H      12.48       9.99      10.78
H      10.52       9.76      12.31
H      10.31       0.08      18.42
H       7.32      15.03       2.14
H       6.71       0.43       3.09
H       7.87       2.49       2.28
H       7.34      13.04       4.93
H       3.31      14.34       4.20
H       5.22      15.25       7.96
H       3.27      15.47       6.43
H      11.45      16.75       9.05
H      14.44       1.79      11.51
H       0.54      16.40      12.46
H      13.89      14.34      11.65
H      14.41       3.78      14.30
H       3.94       2.49      13.57
H       2.03       1.57      17.33
H       3.98       1.35      15.80
H      10.31       8.33       9.05
H       7.32      10.20      11.51
H       6.71       7.98      12.46
H       7.87       5.92      11.65
H       7.34      12.19      14.30
H       3.31      10.90      13.57
H       5.22       9.99      17.33
H       3.27       9.76      15.80
H      11.45       8.49      18.42
H      14.44       6.62       2.14
H       0.54       8.84       3.09
H      13.89      10.90       2.28
H      14.41       4.63       4.93
H       3.94       5.93       4.20
H       2.03       6.84       7.96
H       3.98       7.06       6.43
H       4.19      16.75       0.32
H       7.19       1.79      16.60
H       7.79      16.40      15.65
H       6.64      14.34      16.46
H       7.16       3.78      13.81
H      11.19       2.49      14.54
H       9.28       1.57      10.78
H      11.24       1.35      12.31
H       3.06       0.08       9.69
H       0.06      15.03       7.23
H      13.96       0.43       6.28
H       0.61       2.49       7.09
H       0.09      13.04       4.44
H      10.56      14.34       5.17
H      12.48      15.25       1.41
H      10.52      15.47       2.94
C       4.66      11.04       8.97
C       5.34       9.82       8.43
C       4.99       8.58       8.95
C       5.68       7.43       8.55
C       6.68       7.52       7.57
C       7.02       8.77       7.03
C       6.37       9.92       7.48
C       9.17       4.56       6.27
C       8.05       5.15       4.11
C       9.17       5.22       4.94
C      10.33       5.90       4.51
C       6.98       5.48       1.87
C       8.10       5.72       2.82
C       9.25       6.41       2.41
C       5.32       6.13       9.18
C      10.35       6.52       3.26
C       2.59       5.78      18.34
C       1.91       7.00      17.80
C       2.26       8.25      18.32
C       1.57       9.40      17.92
C       0.57       9.30      16.94
C       0.23       8.06      16.40
C       0.88       6.90      16.85
C      12.59      12.27      15.64
C      13.70      11.67      13.47
C      12.58      11.61      14.31
C      11.43      10.93      13.88
C       0.27      11.35      11.24
C      13.65      11.11      12.19
C      12.50      10.42      11.77
C       1.93      10.69      18.55
C      11.40      10.31      12.63
C       9.84       2.63       0.40
C       9.16       1.41       0.93
C       9.52       0.16       0.42
C       8.83      15.84       0.82
C       7.82      15.93       1.80
C       7.49       0.36       2.34
C       8.14       1.51       1.89
C       5.34      12.97       3.09
C       6.45      13.57       5.26
C       5.33      13.63       4.43
C       4.18      14.31       4.86
C       7.53      13.89       7.49
C       6.40      14.13       6.55
C       5.25      14.82       6.96
C       9.18      14.54       0.19
C       4.15      14.93       6.11
C      11.91      14.20       9.77
C      12.59      15.41      10.30
C      12.24      16.66       9.79
C      12.93       0.99      10.19
C      13.94       0.89      11.17
C      14.27      16.47      11.71
C      13.62      15.32      11.26
C       1.92       3.85      12.46
C       0.80       3.26      14.63
C       1.92       3.19      13.80
C       3.08       2.51      14.23
C      14.23       2.94      16.86
C       0.85       2.69      15.92
C       2.00       2.00      16.33
C      12.57       2.28       9.56
C       3.10       1.90      15.48
C       9.84       5.78       9.77
C       9.16       7.00      10.30
C       9.52       8.25       9.79
C       8.83       9.40      10.19
C       7.82       9.30      11.17
C       7.49       8.06      11.71
C       8.14       6.90      11.26
C       5.34      12.27      12.46
C       6.45      11.67      14.63
C       5.33      11.61      13.80
C       4.18      10.93      14.23
C       7.53      11.35      16.86
C       6.40      11.11      15.92
C       5.25      10.42      16.33
C       9.18      10.69       9.56
C       4.15      10.31      15.48
C      11.91      11.04       0.40
C      12.59       9.82       0.93
C      12.24       8.58       0.42
C      12.93       7.43       0.82
C      13.94       7.52       1.80
C      14.27       8.77       2.34
C      13.62       9.92       1.89
C       1.92       4.56       3.09
C       0.80       5.15       5.26
C       1.92       5.22       4.43
C       3.08       5.90       4.86
C      14.23       5.48       7.49
C       0.85       5.72       6.55
C       2.00       6.41       6.96
C      12.57       6.13       0.19
C       3.10       6.52       6.11
C       4.66      14.20      18.34
C       5.34      15.41      17.80
C       4.99      16.66      18.32
C       5.68       0.99      17.92
C       6.68       0.89      16.94
C       7.02      16.47      16.40
C       6.37      15.32      16.85
C       9.17       3.85      15.64
C       8.05       3.26      13.47
C       9.17       3.19      14.31
C      10.33       2.51      13.88
C       6.98       2.94      11.24
C       8.10       2.69      12.19
C       9.25       2.00      11.77
C       5.32       2.28      18.55
C      10.35       1.90      12.63
C       2.59       2.63       8.97
C       1.91       1.41       8.43
C       2.26       0.16       8.95
C       1.57      15.84       8.55
C       0.57      15.93       7.57
C       0.23       0.36       7.03
C       0.88       1.51       7.48
C      12.59      12.97       6.27
C      13.70      13.57       4.11
C      12.58      13.63       4.94
C      11.43      14.31       4.51
C       0.27      13.89       1.87
C      13.65      14.13       2.82
C      12.50      14.82       2.41
C       1.93      14.54       9.18
C      11.40      14.93       3.26
O       5.98       5.05       8.90
O       5.33      12.14       9.04
O       8.03       4.20       6.77
O       7.13       5.81       0.64
O       3.46      10.94       9.36
O       4.36       6.07      10.01
O       5.94       4.89       2.32
O      10.28       4.40       6.86
O       1.27      11.77      18.27
O       1.93       4.69      18.40
O      13.72      12.62      16.14
O       0.13      11.02      10.01
O       3.79       5.88      18.73
O       2.89      10.75       0.64
O       1.32      11.94      11.69
O      11.48      12.42      16.23
O       8.52      13.47       0.47
O       9.18       3.72       0.33
O       6.47      12.61       2.60
O       7.38      14.22       8.73
O      11.05       2.53       0.01
O      10.15      14.49      18.10
O       8.57      13.30       7.05
O       4.23      12.81       2.51
O      13.23       3.36       9.84
O      12.58      13.10       9.70
O       0.78       4.21      11.97
O      14.38       2.60      18.10
O      10.71      14.29       9.38
O      11.61       2.34       8.73
O      13.19       3.52      16.42
O       3.03       4.01      11.88
O       8.52      11.77       9.84
O       9.18       4.69       9.70
O       6.47      12.62      11.97
O       7.38      11.02      18.10
O      11.05       5.88       9.38
O      10.15      10.75       8.73
O       8.57      11.94      16.42
O       4.23      12.42      11.88
O      13.23       5.05       0.47
O      12.58      12.14       0.33
O       0.78       4.20       2.60
O      14.38       5.81       8.73
O      10.71      10.94       0.01
O      11.61       6.07      18.10
O      13.19       4.89       7.05
O       3.03       4.40       2.51
O       5.98       3.36      18.27
O       5.33      13.10      18.40
O       8.03       4.21      16.14
O       7.13       2.60      10.01
O       3.46      14.29      18.73
O       4.36       2.34       0.64
O       5.94       3.52      11.69
O      10.28       4.01      16.23
O       1.27      13.47       8.90
O       1.93       3.72       9.04
O      13.72      12.61       6.77
O       0.13      14.22       0.64
O       3.79       2.53       9.36
O       2.89      14.49      10.01
O       1.32      13.30       2.32
O      11.48      12.81       6.86
