880

C      15.27      11.53       6.23
C      16.02      13.49       4.96
C      13.64      13.03       5.22
C      12.88      13.58       6.27
C      11.54      13.96       6.05
C      10.95      13.80       4.77
C      11.71      13.23       3.73
C      13.05      12.84       3.95
C      15.73      11.70       7.55
C      15.92      10.59       8.39
C      15.63       9.28       7.92
C      15.19       9.12       6.59
C      15.02      10.23       5.75
C      16.63      13.23       3.72
C      17.66      14.06       3.24
C      18.13      15.15       4.01
C      17.51      15.41       5.25
C      16.45      14.60       5.71
C      15.69       8.12       8.84
C       9.59      14.33       4.48
C      19.23      16.01       3.50
C      45.18      21.50      29.15
C      45.93      19.54      30.42
C      43.55      20.00      30.16
C      42.79      19.45      29.11
C      41.45      19.07      29.33
C      40.86      19.23      30.61
C      41.62      19.81      31.65
C      42.96      20.19      31.43
C      45.64      21.33      27.83
C      45.83      22.45      26.99
C      45.54      23.75      27.46
C      45.10      23.91      28.79
C      44.93      22.80      29.63
C      46.54      19.81      31.66
C      47.57      18.97      32.14
C      48.04      17.88      31.37
C      47.42      17.62      30.13
C      46.36      18.43      29.67
C      45.60      24.91      26.53
C      39.50      18.70      30.90
C      49.14      17.02      31.88
C      30.23       5.06      22.67
C      30.98       3.78      20.71
C      28.60       4.04      21.18
C      27.83       5.09      20.63
C      26.50       4.87      20.24
C      25.90       3.60      20.40
C      26.67       2.56      20.98
C      28.00       2.78      21.36
C      30.69       6.38      22.50
C      30.87       7.21      23.62
C      30.58       6.75      24.92
C      30.14       5.42      25.09
C      29.97       4.58      23.97
C      31.59       2.54      20.98
C      32.61       2.06      20.15
C      33.08       2.83      19.06
C      32.46       4.08      18.79
C      31.41       4.54      19.60
C      30.64       7.67      26.09
C      24.55       3.31      19.88
C      34.19       2.32      18.20
C      30.23      27.98      12.71
C      30.98      29.25      14.66
C      28.60      28.99      14.20
C      27.83      27.94      14.75
C      26.50      28.16      15.14
C      25.90      29.43      14.97
C      26.67      30.47      14.40
C      28.00      30.25      14.01
C      30.69      26.65      12.87
C      30.87      25.82      11.76
C      30.59      26.28      10.46
C      30.14      27.62      10.29
C      29.97      28.46      11.41
C      31.59      30.49      14.40
C      32.62      30.97      15.23
C      33.08      30.20      16.32
C      32.46      28.96      16.59
C      31.41      28.49      15.78
C      30.64      25.36       9.29
C      24.55      29.72      15.50
C      34.19      30.71      17.18
C      44.59      27.98      22.67
C      43.84      29.25      20.71
C      46.23      28.99      21.18
C      46.99      27.94      20.63
C      48.33      28.16      20.24
C      48.92      29.43      20.40
C      48.15      30.47      20.98
C      46.82      30.25      21.37
C      44.13      26.65      22.50
C      43.95      25.82      23.62
C      44.24      26.28      24.92
C      44.68      27.62      25.09
C      44.85      28.46      23.97
C      43.23      30.49      20.98
C      42.21      30.97      20.15
C      41.74      30.20      19.06
C      42.36      28.96      18.79
C      43.41      28.49      19.60
C      44.18      25.36      26.09
C      50.28      29.72      19.88
C      40.63      30.71      18.20
C      14.68       5.06      12.71
C      13.93       3.78      14.66
C      16.31       4.04      14.20
C      17.08       5.09      14.75
C      18.42       4.87      15.14
C      19.01       3.60      14.97
C      18.24       2.56      14.40
C      16.91       2.78      14.01
C      14.22       6.38      12.87
C      14.04       7.21      11.76
C      14.33       6.75      10.46
C      14.77       5.41      10.29
C      14.94       4.58      11.41
C      13.32       2.54      14.40
C      12.30       2.06      15.23
C      11.83       2.83      16.32
C      12.45       4.08      16.59
C      13.50       4.54      15.78
C      14.27       7.67       9.29
C      20.37       3.31      15.50
C      10.72       2.32      17.18
C      29.64      11.53      29.15
C      28.89      13.49      30.42
C      31.27      13.03      30.16
C      32.04      13.58      29.11
C      33.37      13.96      29.33
C      33.96      13.80      30.61
C      33.20      13.23      31.65
C      31.87      12.84      31.43
C      29.18      11.70      27.83
C      29.00      10.59      26.99
C      29.28       9.28      27.46
C      29.72       9.12      28.79
C      29.90      10.23      29.63
C      28.28      13.23      31.66
C      27.25      14.06      32.14
C      26.78      15.15      31.37
C      27.41      15.41      30.13
C      28.46      14.60      29.67
C      29.22       8.12      26.53
C      35.32      14.33      30.90
C      25.68      16.01      31.88
C      29.64      21.50       6.23
C      28.89      19.54       4.96
C      31.27      20.00       5.22
C      32.04      19.45       6.27
C      33.37      19.07       6.05
C      33.97      19.23       4.77
C      33.20      19.81       3.73
C      31.87      20.19       3.95
C      29.18      21.33       7.55
C      29.00      22.45       8.39
C      29.28      23.75       7.92
C      29.72      23.91       6.59
C      29.90      22.80       5.75
C      28.28      19.81       3.72
C      27.25      18.97       3.24
C      26.78      17.88       4.01
C      27.41      17.62       5.25
C      28.46      18.43       5.71
C      29.22      24.91       8.84
C      35.32      18.70       4.48
C      25.68      17.02       3.50
C       7.50      16.52       0.79
C      36.32      17.09       1.50
C      36.31      17.05       2.92
C      37.41      16.52       3.61
C       8.60      15.98       2.92
C       8.59      15.95       1.50
C      35.27      17.68       0.78
C       9.65      15.35       0.78
C      22.46      16.52      35.16
C      51.31      17.15      34.44
C      21.41      17.16      33.03
C      22.46      16.52      32.34
C      23.50      15.87      33.03
C      23.51      15.88      34.44
C      50.25      17.74      35.18
C      24.57      15.30      35.18
C      37.41      16.52      34.59
C      36.32      15.95      33.87
C      36.31      15.98      32.46
C      37.41      16.52      31.77
C      38.51      17.05      32.46
C      38.50      17.09      33.87
C      35.27      15.35      34.60
C      39.55      17.68      34.60
C      22.46      16.52       0.22
C      21.40      15.88       0.93
C      21.41      15.87       2.35
C      22.46      16.52       3.04
C      23.50      17.16       2.35
C      23.51      17.15       0.93
C      20.34      15.30       0.20
C      24.57      17.74       0.20
C      37.41      35.41      17.69
C      21.36       0.33      17.12
C      21.35       1.75      17.15
C      22.46       2.44      17.69
C      23.56       1.75      18.23
C      23.55       0.33      18.26
C      35.27      35.40      16.52
C      39.56      35.40      18.85
C      37.41      33.99      17.69
C      36.35      33.27      17.06
C      36.37      31.85      17.04
C      37.41      31.16      17.69
C      38.46      31.85      18.34
C      38.47      33.27      18.32
C      35.30      34.00      16.47
C      39.52      34.00      18.91
C      22.46      33.42      17.69
C      21.37      32.70      18.26
C      21.35      31.28      18.23
C      22.46      30.59      17.69
C      23.56      31.28      17.15
C      23.55      32.70      17.12
C      50.22      33.43      18.86
C      24.60      33.43      16.52
C      22.46      34.85      17.69
C      51.31      35.56      18.32
C      36.36       1.18      18.34
C      37.41       1.87      17.69
C       8.55       1.18      17.04
C      23.51      35.56      17.06
C      50.25      34.83      18.91
C      24.57      34.83      16.47
C      22.23      31.07       8.35
C      22.98      33.03       7.08
C      20.60      32.57       7.34
C      19.83      33.12       8.39
C      18.50      33.50       8.17
C      17.90      33.34       6.89
C      18.67      32.76       5.85
C      20.00      32.38       6.07
C      22.69      31.24       9.67
C      22.87      30.12      10.51
C      22.59      28.82      10.04
C      22.14      28.65       8.71
C      21.97      29.77       7.87
C      23.59      32.76       5.84
C      24.62      33.59       5.36
C      25.08      34.69       6.13
C      24.46      34.95       7.37
C      23.41      34.14       7.83
C      22.64      27.66      10.97
C      46.46      33.86       6.60
C      26.19      35.54       5.62
C      37.18       5.24      31.27
C      37.93       3.28      32.54
C      35.55       3.74      32.28
C      34.79       3.19      31.24
C      33.45       2.81      31.45
C      32.86       2.97      32.73
C      33.62       3.54      33.77
C      34.96       3.93      33.55
C      37.64       5.07      29.95
C      37.82       6.18      29.11
C      37.54       7.49      29.58
C      37.10       7.65      30.91
C      36.93       6.54      31.75
C      38.54       3.54      33.78
C      39.57       2.71      34.26
C      40.04       1.62      33.49
C      39.41       1.35      32.25
C      38.36       2.17      31.79
C      37.60       8.65      28.66
C      31.50       2.44      33.02
C      41.14       0.76      34.00
C      37.18      24.59      24.79
C      37.93      23.32      22.84
C      35.55      23.58      23.30
C      34.79      24.63      22.75
C      33.45      24.41      22.36
C      32.86      23.14      22.53
C      33.62      22.10      23.10
C      34.96      22.32      23.49
C      37.64      25.92      24.62
C      37.83      26.75      25.74
C      37.54      26.28      27.04
C      37.10      24.95      27.21
C      36.93      24.11      26.09
C      38.54      22.08      23.10
C      39.57      21.60      22.27
C      40.04      22.37      21.18
C      39.42      23.61      20.91
C      38.36      24.08      21.72
C      37.60      27.21      28.21
C      31.50      22.84      22.00
C      41.14      21.86      20.32
C      22.23      11.71      14.83
C      22.98      12.98      16.79
C      20.60      12.73      16.32
C      19.83      11.68      16.87
C      18.50      11.90      17.26
C      17.90      13.17      17.10
C      18.67      14.21      16.52
C      20.00      13.99      16.14
C      22.69      10.39      15.00
C      22.87       9.55      13.88
C      22.59      10.02      12.58
C      22.14      11.35      12.41
C      21.97      12.19      13.53
C      23.59      14.23      16.52
C      24.61      14.70      17.35
C      25.08      13.93      18.44
C      24.46      12.69      18.71
C      23.41      12.23      17.90
C      22.64       9.10      11.41
C      16.55      13.46      17.62
C      26.19      14.45      19.30
C      36.59      11.71      24.79
C      35.84      12.98      22.84
C      38.22      12.73      23.30
C      38.99      11.68      22.75
C      40.33      11.90      22.36
C      40.92      13.17      22.53
C      40.15      14.21      23.10
C      38.82      13.99      23.49
C      36.13      10.39      24.63
C      35.95       9.55      25.74
C      36.24      10.02      27.05
C      36.68      11.35      27.21
C      36.85      12.19      26.09
C      35.23      14.23      23.10
C      34.21      14.70      22.27
C      33.74      13.93      21.18
C      34.36      12.69      20.91
C      35.41      12.23      21.72
C      36.18       9.10      28.21
C      42.28      13.46      22.00
C      32.63      14.45      20.32
C      21.64      24.59      14.83
C      20.89      23.32      16.79
C      23.27      23.58      16.32
C      24.04      24.63      16.87
C      25.37      24.41      17.26
C      25.97      23.14      17.10
C      25.20      22.10      16.52
C      23.87      22.32      16.14
C      21.18      25.92      15.00
C      21.00      26.75      13.88
C      21.28      26.28      12.58
C      21.72      24.95      12.41
C      21.90      24.11      13.53
C      20.28      22.08      16.52
C      19.25      21.60      17.35
C      18.78      22.37      18.44
C      19.41      23.61      18.71
C      20.46      24.08      17.90
C      21.22      27.21      11.41
C      27.32      22.84      17.62
C      17.68      21.86      19.30
C      36.59      31.07      31.27
C      35.84      33.03      32.54
C      38.22      32.57      32.28
C      38.99      33.12      31.23
C      40.33      33.50      31.45
C      40.92      33.34      32.73
C      40.15      32.76      33.77
C      38.82      32.38      33.55
C      36.13      31.24      29.95
C      35.95      30.12      29.11
C      36.24      28.82      29.58
C      36.68      28.66      30.91
C      36.85      29.77      31.75
C      35.23      32.76      33.78
C      34.21      33.60      34.26
C      33.74      34.69      33.49
C      34.36      34.95      32.25
C      35.41      34.14      31.79
C      36.18      27.66      28.66
C      42.28      33.86      33.02
C      32.63      35.54      34.00
C      21.64       5.24       8.35
C      20.89       3.28       7.08
C      23.27       3.74       7.34
C      24.04       3.19       8.39
C      25.37       2.81       8.17
C      25.97       2.97       6.89
C      25.20       3.54       5.85
C      23.87       3.93       6.07
C      21.18       5.07       9.67
C      21.00       6.18      10.51
C      21.28       7.49      10.04
C      21.72       7.65       8.71
C      21.90       6.54       7.87
C      20.28       3.54       5.84
C      19.25       2.71       5.36
C      18.78       1.62       6.13
C      19.41       1.35       7.37
C      20.46       2.17       7.83
C      21.22       8.65      10.97
C      27.32       2.44       6.60
C      17.68       0.76       5.62
C      29.41       0.25       2.91
C      28.32       0.82       3.63
C      28.31       0.79       5.04
C      29.41       0.25       5.74
C      45.47      35.52       5.04
C      45.46      35.48       3.63
C      27.27       1.42       2.90
C      16.60      34.89       2.90
C      29.41       0.25       1.48
C      28.35       0.88       0.77
C      43.32       0.90      35.15
C      44.37       0.25      34.46
C      30.46      35.41      35.15
C      15.52      35.42       0.77
C      27.30       1.47       1.50
C      16.57      34.83       1.50
C      14.46       0.25       0.91
C      28.32      35.48       0.20
C      43.26      35.52      34.58
C      29.41       0.25      33.89
C      30.51       0.79      34.58
C      15.55       0.82       0.20
C      27.27      34.89       0.92
C      16.60       1.42       0.92
C      14.46       0.25       2.34
C      28.35      35.42       3.06
C      28.37      35.41       4.48
C      14.46       0.25       5.16
C      15.50       0.90       4.48
C      15.51       0.88       3.06
C      27.30      34.83       2.32
C      16.57       1.47       2.32
C      29.41      19.15      19.81
C      28.32      19.87      19.24
C      28.31      21.28      19.27
C      29.41      21.98      19.81
C      30.51      21.29      20.35
C      30.50      19.87      20.38
C      27.27      19.14      18.64
C      31.55      19.14      20.98
C      29.41      17.72      19.81
C      28.35      17.01      19.18
C      28.36      15.59      19.16
C      29.41      14.90      19.81
C      30.46      15.59      20.46
C      30.47      17.01      20.44
C      27.30      17.74      18.59
C      31.52      17.74      21.03
C      44.37      17.15      19.81
C      43.27      16.44      20.38
C      43.26      15.02      20.35
C      14.46      14.33      19.81
C      15.56      15.02      19.27
C      15.55      16.44      19.24
C      42.22      17.17      20.98
C      16.60      17.17      18.65
C      44.37      18.58      19.81
C      43.31      19.30      20.44
C      43.32      20.72      20.46
C      44.37      21.41      19.81
C      45.41      20.72      19.16
C      45.42      19.30      19.18
C      42.25      18.57      21.03
C      16.57      18.57      18.59
H      16.20      10.74       9.36
H      15.90      12.64       7.93
H      14.67      10.10       4.80
H      14.96       8.19       6.23
H      13.30      13.73       7.19
H      11.02      14.40       6.81
H      16.33      12.43       3.15
H      18.08      13.84       2.33
H      17.81      16.21       5.82
H      16.01      14.82       6.61
H      13.59      12.43       3.18
H      11.31      13.10       2.80
H      16.28       8.38       9.73
H      16.21       7.29       8.35
H       9.05      14.58       5.40
H       9.02      13.56       3.96
H      19.55      16.74       4.25
H      18.85      16.56       2.64
H      46.11      22.29      26.02
H      45.81      20.39      27.45
H      44.57      22.94      30.58
H      44.87      24.84      29.15
H      43.21      19.31      28.19
H      40.93      18.63      28.57
H      46.24      20.60      32.23
H      47.99      19.19      33.05
H      47.71      16.82      29.56
H      45.92      18.21      28.77
H      43.49      20.60      32.20
H      41.22      19.93      32.58
H      46.19      24.65      25.65
H      46.12      25.74      27.03
H      38.96      18.46      29.98
H      38.93      19.48      31.42
H      49.46      16.29      31.13
H      48.76      16.47      32.74
H      31.16       8.18      23.46
H      30.85       6.75      21.57
H      29.62       3.62      24.11
H      29.91       5.06      26.02
H      28.25       6.01      20.48
H      25.97       5.64      19.81
H      31.28       1.98      21.78
H      33.03       1.16      20.36
H      32.76       4.65      18.00
H      30.96       5.44      19.39
H      28.54       2.01      21.77
H      26.27       1.63      21.10
H      31.23       8.56      25.83
H      31.16       7.18      26.91
H      24.00       4.22      19.63
H      23.97       2.78      20.65
H      34.51       3.07      17.47
H      33.80       1.46      17.65
H      31.16      24.85      11.91
H      30.85      26.28      13.81
H      29.62      29.41      11.27
H      29.91      27.97       9.36
H      28.25      27.02      14.90
H      25.98      27.40      15.57
H      31.28      31.05      13.60
H      33.04      31.87      15.02
H      32.76      28.38      17.38
H      30.97      27.60      15.99
H      28.54      31.02      13.61
H      26.27      31.40      14.28
H      31.23      24.48       9.55
H      31.16      25.85       8.46
H      24.00      28.81      15.75
H      23.97      30.25      14.73
H      34.51      29.96      17.91
H      33.80      31.57      17.73
H      43.66      24.85      23.46
H      43.97      26.28      21.57
H      45.20      29.41      24.11
H      44.91      27.97      26.02
H      46.57      27.02      20.48
H      48.85      27.40      19.81
H      43.54      31.05      21.78
H      41.79      31.87      20.36
H      42.06      28.38      18.00
H      43.86      27.60      19.39
H      46.28      31.02      21.77
H      48.56      31.40      21.10
H      43.59      24.48      25.83
H      43.66      25.85      26.92
H      20.91      28.81      19.63
H      50.85      30.25      20.65
H      40.32      29.96      17.47
H      41.02      31.57      17.65
H      13.75       8.18      11.91
H      14.06       6.75      13.81
H      15.29       3.62      11.27
H      15.00       5.06       9.36
H      16.66       6.01      14.90
H      18.94       5.64      15.57
H      13.63       1.98      13.60
H      11.88       1.16      15.02
H      12.15       4.65      17.38
H      13.95       5.44      15.99
H      16.37       2.01      13.61
H      18.65       1.63      14.27
H      13.68       8.56       9.55
H      13.75       7.18       8.46
H      20.91       4.22      15.75
H      20.94       2.78      14.73
H      10.41       3.07      17.91
H      11.11       1.46      17.73
H      28.71      10.74      26.02
H      29.02      12.64      27.45
H      30.25      10.10      30.58
H      29.95       8.19      29.15
H      31.61      13.73      28.19
H      33.89      14.40      28.57
H      28.59      12.43      32.23
H      26.83      13.84      33.05
H      27.11      16.21      29.56
H      28.90      14.82      28.77
H      31.33      12.43      32.20
H      33.60      13.10      32.58
H      28.63       8.38      25.65
H      28.71       7.29      27.03
H      35.86      14.58      29.98
H      35.89      13.56      31.42
H      25.36      16.74      31.13
H      26.06      16.56      32.74
H      28.71      22.29       9.36
H      29.02      20.39       7.93
H      30.25      22.94       4.80
H      29.96      24.84       6.23
H      31.61      19.31       7.19
H      33.89      18.63       6.81
H      28.59      20.60       3.15
H      26.83      19.19       2.33
H      27.11      16.82       5.82
H      28.90      18.21       6.61
H      31.33      20.60       3.18
H      33.60      19.93       2.80
H      28.63      24.65       9.73
H      28.71      25.74       8.35
H      35.86      18.46       5.40
H      35.90      19.48       3.96
H      25.36      16.29       4.25
H      26.07      16.47       2.64
H      37.41      16.52       4.64
H      22.46      16.52      31.31
H      49.47      18.19      34.70
H      34.47      18.11       1.25
H      25.35      14.84      34.70
H      10.44      14.92       1.25
H      10.12      16.32       4.19
H      24.12      14.67      31.50
H      50.71      18.37      31.50
H      34.79      16.71       4.19
H      37.41      16.52      30.74
H      22.46      16.52       4.07
H      19.56      14.84       0.67
H      34.47      14.92      34.13
H      25.35      18.19       0.67
H      40.35      18.11      34.13
H      40.03      16.71      31.19
H      24.12      18.37       3.88
H      20.80      14.67       3.88
H      34.79      16.32      31.19
H      22.46       3.46      17.69
H      37.41      30.14      17.69
H      34.52      33.53      16.01
H      19.51       0.08      16.10
H      40.30      33.53      19.37
H      25.40       0.08      19.28
H      25.08       3.02      17.89
H      39.07      30.33      19.54
H      35.75      30.33      15.84
H      19.83       3.02      17.49
H      22.46      29.57      17.69
H      37.41       2.89      17.69
H      49.47      35.30      19.37
H      49.43      32.95      19.28
H      25.35      35.30      16.01
H      25.40      32.95      16.10
H      25.08      30.02      17.49
H       9.16       2.70      15.84
H      35.75       2.70      19.54
H      49.74      30.02      17.89
H      23.16      30.28      11.48
H      22.85      32.17      10.05
H      21.62      29.63       6.92
H      21.91      27.72       8.35
H      20.25      33.26       9.31
H      17.98      33.94       8.93
H      23.28      31.97       5.27
H      25.04      33.38       4.45
H      24.76      35.74       7.94
H      22.97      34.35       8.73
H      20.54      31.97       5.30
H      18.27      32.64       4.92
H      23.23      27.92      11.85
H      23.16      26.83      10.47
H      45.92      34.11       7.52
H      45.88      33.09       6.08
H      11.55       0.48       6.37
H      10.85       0.30       4.76
H      38.11       6.03      28.14
H      37.81       4.13      29.57
H      36.57       6.67      32.70
H      36.87       8.58      31.27
H      35.21       3.04      30.32
H      32.93       2.37      30.69
H      38.24       4.34      34.35
H      39.99       2.93      35.17
H      39.71       0.56      31.68
H      37.92       1.95      30.89
H      35.49       4.33      34.32
H      33.22       3.67      34.70
H      38.19       8.39      27.77
H      38.12       9.48      29.15
H      30.96       2.19      32.10
H      30.93       3.21      33.54
H      41.46       0.03      33.25
H      40.76       0.21      34.86
H      38.11      27.72      25.59
H      37.81      26.29      23.69
H      36.57      23.16      26.23
H      36.87      24.59      28.14
H      35.21      25.55      22.60
H      32.93      25.17      21.93
H      38.24      21.52      23.90
H      39.99      20.70      22.48
H      39.72      24.19      20.12
H      37.92      24.97      21.51
H      35.50      21.55      23.89
H      33.22      21.16      23.22
H      38.19      28.09      27.95
H      38.12      26.72      29.04
H      30.96      23.76      21.75
H      30.93      22.32      22.77
H      41.46      22.61      19.59
H      40.76      21.00      19.77
H      23.16       8.59      14.04
H      22.85      10.01      15.93
H      21.62      13.14      13.39
H      21.91      11.71      11.48
H      20.25      10.76      17.02
H      17.98      11.13      17.69
H      23.28      14.79      15.72
H      25.04      15.61      17.14
H      24.76      12.12      19.50
H      22.96      11.33      18.11
H      20.54      14.76      15.73
H      18.27      15.14      16.40
H      23.23       8.21      11.67
H      23.16       9.59      10.58
H      16.00      12.54      17.87
H      15.97      13.99      16.85
H      26.51      13.70      20.03
H      25.80      15.31      19.85
H      35.66       8.59      25.59
H      35.97      10.01      23.69
H      37.20      13.14      26.23
H      36.91      11.71      28.14
H      38.57      10.76      22.60
H      40.85      11.13      21.93
H      35.54      14.79      23.90
H      33.79      15.61      22.48
H      34.06      12.12      20.12
H      35.86      11.33      21.51
H      38.28      14.76      23.89
H      40.56      15.14      23.23
H      35.59       8.21      27.95
H      35.66       9.59      29.04
H      42.82      12.54      21.75
H      42.85      13.99      22.77
H      32.32      13.70      19.59
H      33.02      15.31      19.77
H      20.71      27.72      14.04
H      21.02      26.29      15.93
H      22.25      23.16      13.39
H      21.95      24.59      11.48
H      23.61      25.55      17.02
H      25.89      25.17      17.69
H      20.59      21.51      15.73
H      18.83      20.70      17.14
H      19.11      24.18      19.50
H      20.90      24.97      18.11
H      23.33      21.55      15.73
H      25.60      21.16      16.40
H      20.63      28.09      11.67
H      20.71      26.72      10.59
H      27.86      23.76      17.87
H      27.90      22.32      16.85
H      47.27      22.61      20.03
H      18.07      21.00      19.85
H      35.66      30.28      28.14
H      35.97      32.17      29.57
H      37.20      29.63      32.70
H      36.91      27.72      31.27
H      38.57      33.26      30.31
H      40.85      33.94      30.69
H      35.54      31.97      34.35
H      33.79      33.38      35.17
H      34.06      35.74      31.68
H      35.86      34.35      30.89
H      38.28      31.97      34.32
H      40.56      32.64      34.70
H      35.59      27.92      27.77
H      35.66      26.83      29.15
H      42.82      34.11      32.10
H      42.85      33.09      33.54
H      17.36       0.48      33.25
H      18.06       0.30      34.86
H      20.71       6.03      11.48
H      21.02       4.13      10.05
H      22.25       6.67       6.92
H      21.95       8.58       8.35
H      23.61       3.04       9.31
H      25.89       2.37       8.93
H      20.59       4.34       5.27
H      18.83       2.93       4.45
H      19.11       0.56       7.94
H      20.90       1.95       8.73
H      23.33       4.33       5.30
H      25.60       3.67       4.92
H      20.63       8.39      11.85
H      20.71       9.48      10.47
H      27.86       2.19       7.52
H      27.90       3.21       6.08
H      17.36       0.03       6.37
H      18.07       0.21       4.76
H      29.41       0.25       6.76
H      14.46       0.25      33.43
H      26.52       1.93       1.03
H      26.47       1.84       3.37
H      17.35      34.38       1.03
H      17.40      34.46       3.37
H      32.03       0.05       6.31
H      31.07      34.20      33.62
H      42.71       2.10      33.62
H      26.79       0.45       6.31
H      29.41       0.25      32.86
H      14.46       0.25       6.19
H      26.52      34.38       2.80
H      26.47      34.46       0.45
H      17.35       1.93       2.80
H      17.40       1.84       0.45
H      32.03       0.45      33.31
H      16.12       2.10       6.00
H      27.75      34.20       6.00
H      26.79       0.05      33.31
H      29.41      23.00      19.81
H      29.41      13.88      19.81
H      26.52      17.27      18.13
H      26.47      19.62      18.22
H      32.30      17.27      21.49
H      32.35      19.62      21.40
H      32.03      22.55      20.01
H      31.07      14.07      21.66
H      27.75      14.07      17.96
H      26.79      22.55      19.61
H      14.46      13.31      19.81
H      44.37      22.43      19.81
H      41.47      19.04      21.49
H      41.42      16.69      21.40
H      17.35      19.04      18.13
H      17.40      16.69      18.22
H      17.08      13.75      19.61
H      46.03      22.24      17.96
H      42.71      22.24      21.66
H      41.74      13.75      20.01
N      14.99      12.65       5.41
N      44.90      20.38      29.96
N      29.94       4.24      21.56
N      29.94      28.79      13.82
N      44.88      28.79      21.56
N      14.97       4.24      13.82
N      29.92      12.65      29.96
N      29.93      20.38       5.41
N       9.74      15.54       3.64
N      24.51      15.19      32.30
N      50.31      17.84      32.30
N      35.17      17.49       3.64
N      39.65      17.49      31.74
N      24.51      17.84       3.08
N      20.40      15.19       3.08
N      35.17      15.54      31.74
N      24.70       2.46      18.67
N      39.47      31.12      19.02
N      35.36      31.12      16.36
N      20.22       2.46      16.71
N      24.70      30.57      16.71
N       9.56       1.91      16.36
N      35.35       1.91      19.02
N      50.13      30.57      18.67
N      21.94      32.19       7.54
N      36.90       4.12      32.09
N      36.90      23.78      23.68
N      21.94      12.53      15.94
N      36.88      12.53      23.68
N      21.93      23.78      15.94
N      36.88      32.19      32.09
N      21.93       4.12       7.54
N      46.61      35.08       5.76
N      31.47      34.72      34.42
N      42.31       1.58      34.42
N      27.17       1.23       5.76
N      31.65       1.23      33.86
N      16.51       1.58       5.20
N      27.36      34.72       5.20
N      42.13      35.08      33.86
N      31.65      22.00      20.79
N      31.47      14.86      21.14
N      27.36      14.86      18.48
N      27.17      22.00      18.83
N      16.70      14.30      18.83
N      46.42      21.45      18.48
N      42.31      21.45      21.14
N      42.13      14.30      20.79
