232

C       9.71      18.07      32.94
C       9.66     -18.31      32.91
C       9.74      -0.05       1.39
C       8.64      -0.42       2.19
C       8.72      -0.40       3.60
C       0.04       0.05       4.27
C       1.11       0.49       3.45
C       1.05       0.42       2.04
C       0.93      17.74      32.07
C       0.94      16.53      31.35
C       9.82      15.52      31.54
C       8.76      15.85      32.44
C       8.69      17.10      33.08
C       0.98     -17.83      32.26
C       0.97     -16.64      31.52
C       9.68     -15.79      31.48
C       8.52     -16.25      32.18
C       8.51     -17.49      32.86
C       9.31       5.51      27.07
C       9.66       7.99      27.16
C       0.03       6.66      25.03
C       0.98       5.73      24.54
C       0.91       5.25      23.22
C       9.79       5.74      22.30
C       8.98       6.81      22.74
C       8.98       7.22      24.08
C       0.38       4.90      27.96
C       0.28       3.53      28.30
C       9.15       2.70      27.70
C       8.22       3.32      26.82
C       8.26       4.71      26.56
C       0.82       8.26      28.11
C       0.84       9.46      28.85
C       9.79      10.51      28.58
C       8.76      10.24      27.63
C       8.68       8.99      26.98
C       9.43       1.05      15.13
C       9.79      -0.10      12.94
C       0.13      -1.31      15.14
C       1.05      -1.28      16.21
C       0.94      -2.20      17.27
C       9.82      -3.24      17.27
C       9.03      -3.37      16.10
C       9.08      -2.40      15.07
C       0.48       2.14      15.19
C       0.39       3.11      16.21
C       9.28       2.99      17.25
C       8.36       1.91      17.17
C       8.40       0.99      16.10
C       1.06       0.44      12.26
C       1.09       0.49      10.85
C       0.06      -0.08      10.06
C       8.78      -0.60      10.75
C       8.71      -0.58      12.16
C       9.24      -7.05      24.93
C       9.54      -8.36      27.04
C       9.77      -5.86      26.97
C       0.87      -4.96      26.41
C       0.79      -3.58      26.67
C       9.67      -3.04      27.57
C       8.87      -3.98      28.27
C       8.89      -5.35      27.95
C       0.31      -7.57      23.98
C       0.25      -7.17      22.63
C       9.17      -6.20      22.18
C       8.24      -5.71      23.13
C       8.23      -6.17      24.46
C       0.80      -9.22      26.97
C       0.82     -10.44      27.67
C       9.62     -10.80      28.56
C       8.49      -9.94      28.60
C       8.44      -8.75      27.84
C       0.02      14.25      30.83
C       1.23      13.60      30.44
C       1.25      12.45      29.60
C       0.02      11.78      29.27
C       8.67      12.39      29.72
C       8.67      13.60      30.44
C       3.65      12.59      29.51
C       3.64      13.62      30.46
C       4.79      14.27      30.89
C       0.12       0.04       5.72
C       1.25      -0.43       6.44
C       1.26      -0.52       7.87
C       0.12      -0.09       8.62
C       8.86       0.40       7.89
C       8.85       0.45       6.49
C       3.49      -1.42       7.75
C       3.50      -1.28       6.35
C       4.61      -1.58       5.57
C       9.70     -14.52      30.79
C       0.97     -13.63      30.83
C       0.96     -12.37      30.15
C       9.68     -12.00      29.35
C       8.58     -12.89      29.32
C       8.59     -14.11      30.03
C       3.18     -11.94      30.99
C       3.21     -13.20      31.62
C       4.32     -13.70      32.29
C       9.61       5.13      21.00
C       8.33       4.91      20.40
C       8.19       4.32      19.11
C       9.34       3.81      18.43
C       0.76       4.01      19.04
C       0.89       4.68      20.27
C       5.81       4.64      19.24
C       5.93       5.12      20.56
C       4.84       5.51      21.33
C       9.60      -4.06      18.44
C       8.31      -4.46      18.90
C       8.14      -5.28      20.06
C       9.27      -5.61      20.87
C       0.70      -5.20      20.41
C       0.86      -4.48      19.22
C       5.77      -5.31      19.66
C       5.92      -4.42      18.59
C       4.85      -3.95      17.84
C       9.49      -1.62      27.71
C       8.21      -0.99      27.83
C       8.07       0.43      27.96
C       9.22       1.27      27.83
C       0.63       0.64      27.68
C       0.76      -0.76      27.66
C       5.69       0.15      28.22
C       5.81      -1.24      27.99
C       4.72      -2.09      27.97
H       1.68      16.42      30.65
H       1.70      18.38      31.92
H       7.88      36.73       0.01
H       8.02      15.17      32.64
H       7.76      -0.70       1.76
H       7.91      -0.73       4.13
H       1.86     -18.34      32.33
H       1.81     -16.40      31.00
H       7.68     -15.68      32.21
H       7.66     -17.78      33.35
H       1.85       0.73       1.49
H       1.96       0.88       3.87
H       0.99       3.14      28.92
H       1.20       5.40      28.29
H       7.63       5.09      25.86
H       7.55       2.76      26.30
H       1.61       5.27      25.20
H       1.52       4.46      22.97
H       1.57       7.59      28.27
H       1.56       9.56      29.57
H       8.06      10.95      27.40
H       7.89       8.83      26.36
H       8.25       7.87      24.38
H       8.30       7.24      22.11
H       1.09       3.85      16.23
H       1.27       2.19      14.55
H       7.77       0.18      16.13
H       7.70       1.72      17.93
H       1.68      -0.49      16.31
H       1.53      -2.03      18.10
H       1.86       0.79      12.78
H       1.90       0.92      10.40
H       8.00      -1.00      10.23
H       7.87      -0.94      12.62
H       8.38      -2.45      14.33
H       8.35      -4.12      16.01
H       0.97      -7.54      21.99
H       1.09      -8.15      24.28
H       7.60      -5.73      25.13
H       7.60      -4.96      22.89
H       1.50      -5.28      25.67
H       1.38      -2.96      26.12
H       1.62      -8.97      26.41
H       1.64     -11.05      27.57
H       7.70     -10.16      29.21
H       7.61      -8.17      27.89
H       8.18      -5.95      28.36
H       8.20      -3.67      28.98
H       7.77      14.01      30.67
H       7.76      11.96      29.54
H       2.52      11.37      28.41
H       5.30      15.10      29.27
H       8.02       0.83       6.03
H       8.03       0.75       8.38
H       2.40      -1.24       9.40
H       4.93      -3.37       6.10
H       7.77     -14.72      29.93
H       7.76     -12.68      28.75
H       2.07     -10.67      29.94
H       4.65     -12.29      33.50
H       1.83       4.80      20.64
H       1.61       3.64      18.61
H       6.80       3.99      17.65
H       4.11       6.84      20.20
H       1.81      -4.23      18.94
H       1.54      -5.39      20.97
H       6.72      -6.35      21.06
H       4.09      -5.59      17.28
H       1.71      -1.14      27.58
H       1.48       1.19      27.55
H       6.69       1.86      28.41
H       4.02      -1.76      29.70
N       9.66      19.33      33.63
N       9.62       6.76      26.44
N       9.75      -0.12      14.37
N       9.53      -7.12      26.33
N       2.47      12.05      29.11
N       2.43      14.09      30.84
N       2.38      -1.07       8.45
N       2.37      -0.82       5.78
N       2.06     -11.56      30.31
N       2.09     -13.95      31.53
N       6.93       4.27      18.57
N       7.19       5.24      21.06
N       6.87      -5.71      20.35
N       7.19      -4.06      18.26
N       6.81       0.92      28.20
N       7.07      -1.73      27.82
O       4.82      12.12      29.00
O       4.88      14.51      32.08
O       5.34      15.10      30.16
O       4.58      -1.88       8.42
O       4.82      -0.88       4.59
O       5.11      -2.71       5.53
O       4.25     -11.12      31.03
O       4.56     -14.89      32.22
O       4.84     -13.11      33.25
O       4.60       4.53      18.64
O       4.86       5.27      22.52
O       4.14       6.47      21.00
O       4.54      -5.75      20.04
O       4.89      -2.80      17.42
O       4.13      -4.71      17.18
O       4.48       0.72      28.43
O       4.74      -3.02      27.18
O       4.04      -2.29      28.99
