60

C      21.63      17.63      13.56
C      21.18      16.46      14.21
C      20.33      16.53      15.31
C      22.49      17.62      12.38
C      22.96      16.53      11.73
C      23.80      16.63      10.52
H      16.08      17.91      19.59
H      15.57      20.06      19.92
H      13.61      21.57      19.79
H      13.84      21.49      15.48
H      15.76      19.97      15.61
H      11.97      22.76      18.59
H      12.05      22.75      15.52
O      24.14      15.50      10.00
O      24.12      17.79      10.07
C      18.85      16.87      17.90
C      17.84      16.89      18.88
O      15.50      10.00      24.14
C      17.77      15.80      19.88
O      17.79      10.07      24.12
C      18.94      15.18      20.36
C      18.87      14.08      21.21
C      17.63      13.56      21.63
C      16.46      14.21      21.18
C      16.53      15.31      20.33
C      17.62      12.38      22.49
C      16.53      11.73      22.96
C      16.63      10.52      23.80
O      10.00      24.14      15.50
O      10.07      24.12      17.79
H      17.91      19.59      16.08
H      20.06      19.92      15.57
H      21.57      19.79      13.61
H      21.49      15.48      13.84
H      19.97      15.61      15.76
H      22.76      18.59      11.97
H      22.75      15.52      12.05
C      16.87      17.90      18.85
H      19.59      16.08      17.91
H      19.92      15.57      20.06
H      19.79      13.61      21.57
H      15.48      13.84      21.49
H      15.61      15.76      19.97
H      18.59      11.97      22.76
H      15.52      12.05      22.75
C      16.89      18.88      17.84
C      15.80      19.88      17.77
C      15.18      20.36      18.94
C      14.08      21.21      18.87
C      14.21      21.18      16.46
C      13.56      21.63      17.63
C      15.31      20.33      16.53
C      12.38      22.49      17.62
C      11.73      22.96      16.53
C      10.52      23.80      16.63
C      17.90      18.85      16.87
C      18.88      17.84      16.89
C      19.88      17.77      15.80
C      20.36      18.94      15.18
C      21.21      18.87      14.08
