60

H       2.76       1.09      32.90
H       3.09       3.24      32.39
H       2.96       4.75      30.43
H      -1.34       4.67      30.67
H      -1.21       3.15      32.58
H       1.77       5.94      28.79
H      -1.31       5.93      28.88
C       0.06       2.03      34.72
C       0.07       1.02      35.70
C      -1.02       0.95      36.70
C      -1.64       2.12      37.18
C      -2.73       2.05      38.03
C      -3.25       0.81      38.45
C      -2.61      -0.36      38.00
C      -1.51      -0.29      37.15
C      -4.43       0.80      39.30
C      -5.08      -0.29      39.78
C      -6.29      -0.18      40.62
H      -0.74       2.77      34.73
H      -1.25       3.10      36.88
H      -3.21       2.96      38.39
H      -2.97      -1.34      38.31
H      -1.06      -1.21      36.79
H      -4.85       1.77      39.58
H      -4.76      -1.31      39.57
O      -1.31       7.34      26.84
O       0.98       7.28      26.90
O      -6.80      -1.31      40.98
O      -6.74       0.98      40.92
H       1.09      -0.74      36.41
C       1.08       0.06      35.67
H       3.24      -1.25      36.74
C       3.06      -1.02      34.59
H       4.67      -2.97      32.30
C       3.54      -1.64      35.76
C       2.06       0.07      34.66
H       4.75      -3.21      36.60
C       4.36      -2.61      33.28
C       4.39      -2.73      35.69
H       3.15      -1.06      32.43
C       4.81      -3.25      34.45
O       7.34      -6.80      32.33
O       7.28      -6.74      34.62
H       5.94      -4.85      35.41
H       5.93      -4.76      32.33
C       3.51      -1.51      33.35
C       5.66      -4.43      34.44
C       6.14      -5.08      33.35
C       6.98      -6.29      33.46
C       2.03       1.08      33.70
C       1.02       2.06      33.71
C       0.95       3.06      32.62
C       2.12       3.54      32.00
C       2.05       4.39      30.91
C       0.81       4.81      30.39
C      -0.36       4.36      31.03
C      -0.29       3.51      32.13
C       0.79       5.66      29.21
C      -0.29       6.14      28.56
C      -0.18       6.98      27.35
