60

C      31.61      33.59      17.90
C      32.62      33.57      18.88
C      32.69      34.66      19.88
C      31.52      35.28      20.36
C      31.59      36.37      21.21
C      32.83      36.90      21.63
C      34.00      36.25      21.18
C      33.93      35.15      20.33
C      32.84      38.07      22.49
C      33.93      38.72      22.96
C      33.82      39.93      23.80
O      26.31      34.95      10.00
O      26.37      32.67      10.06
O      34.95      40.44      24.15
O      32.67      40.37      24.13
O      40.44      26.30      15.50
O      40.38      26.36      17.79
H      32.55      30.88      16.08
H      30.40      30.55      15.57
H      28.89      30.68      13.61
H      28.97      34.98      13.84
H      30.49      34.85      15.76
H      27.70      31.87      11.97
H      27.71      34.95      12.05
C      33.59      32.56      18.85
C      33.57      31.58      17.84
C      34.66      30.58      17.77
C      35.28      30.10      18.94
C      36.37      29.25      18.87
C      36.90      28.83      17.63
C      36.25      29.28      16.46
C      35.15      30.13      16.53
C      38.07      27.98      17.61
C      38.72      27.50      16.53
C      39.93      26.66      16.63
H      30.88      34.38      17.91
H      30.54      34.89      20.06
H      30.68      36.85      21.57
H      34.98      36.62      21.49
H      34.85      34.70      19.97
H      31.87      38.49      22.76
H      34.95      38.40      22.75
H      36.85      28.89      19.78
C      27.97      32.85      12.38
C      32.56      31.61      16.87
C      31.58      32.62      16.89
C      30.58      32.69      15.80
C      30.10      31.52      15.18
C      29.25      31.59      14.08
C      28.83      32.83      13.56
C      29.28      34.00      14.21
C      30.13      33.93      15.31
H      34.38      32.55      19.59
H      34.89      30.40      19.92
C      27.50      33.93      11.73
H      36.62      28.97      15.48
H      34.70      30.49      15.61
H      38.49      27.70      18.59
H      38.40      27.71      15.51
C      26.67      33.82      10.52
