60

C      10.68      17.11      21.91
C       9.84      17.01      23.12
O       9.50      18.14      23.64
O       9.52      15.85      23.57
H      14.06      17.56      15.73
H      13.72      18.07      13.58
H      13.86      20.03      12.07
H      18.16      19.80      12.15
H      18.03      17.88      13.67
H      15.05      21.67      10.88
H      18.12      21.59      10.89
O      18.14      23.64       9.50
O      15.85      23.57       9.52
O      23.64       9.50      18.14
O      23.57       9.52      15.85
C      14.79      16.77      15.74
C      15.80      16.75      14.76
C      15.87      17.84      13.76
C      14.70      18.46      13.28
C      14.77      19.56      12.43
C      16.01      20.08      12.01
C      17.18      19.43      12.46
C      17.11      18.33      13.31
C      16.02      21.26      11.15
C      17.11      21.91      10.68
C      17.01      23.12       9.84
H      17.56      15.73      14.06
H      18.07      13.58      13.72
H      20.03      12.07      13.86
H      19.80      12.15      18.16
H      17.88      13.67      18.03
H      21.67      10.88      15.05
H      21.58      10.89      18.12
H      10.88      15.05      21.67
H      10.89      18.12      21.59
C      15.74      14.79      16.77
C      16.77      15.74      14.79
C      16.75      14.76      15.80
C      17.84      13.76      15.87
C      18.46      13.28      14.70
C      19.56      12.43      14.77
C      20.08      12.01      16.01
C      19.43      12.46      17.18
C      18.33      13.31      17.11
C      21.26      11.15      16.02
C      21.91      10.68      17.11
C      23.12       9.84      17.01
H      15.73      14.06      17.56
H      13.58      13.72      18.07
H      12.07      13.86      20.03
H      12.15      18.16      19.80
H      13.67      18.03      17.88
C      14.76      15.80      16.75
C      13.76      15.87      17.84
C      13.28      14.70      18.46
C      12.43      14.77      19.56
C      12.01      16.01      20.08
C      12.46      17.18      19.43
C      13.31      17.11      18.33
C      11.15      16.02      21.26
