60

C      14.79       1.08      16.77
C      15.80       2.06      16.75
C      15.87       3.06      17.84
C      14.70       3.54      18.46
C      14.77       4.39      19.56
C      16.01       4.81      20.08
C      17.18       4.36      19.43
C      17.11       3.51      18.33
C      16.03       5.67      21.26
C      17.11       6.14      21.91
C      17.01       6.97      23.12
H      14.06       1.09      17.56
H      13.73       3.24      18.07
H      13.86       4.75      20.03
H      18.16       4.67      19.80
H      18.03       3.15      17.88
H      15.05       5.94      21.67
H      18.13       5.93      21.58
C      16.77       2.03      15.74
C      16.75       1.02      14.76
C      17.84       0.95      13.76
C      18.46       2.12      13.28
C      19.56       2.05      12.43
H      18.07       3.10      13.58
C      19.43      -0.36      12.46
C      18.33      -0.29      13.31
H      17.88      -1.21      13.67
H      20.03       2.96      12.07
C      21.26       0.80      11.15
H      19.79      -1.34      12.15
H      17.56       2.76      15.73
H      21.67       1.77      10.88
O      23.57       0.97       9.52
C      21.91      -0.29      10.68
H      21.59      -1.31      10.89
O       9.50      -6.80      18.14
O       9.51      -6.73      15.85
C      23.12      -0.18       9.84
H      15.73      -0.74      14.05
O      23.64      -1.31       9.50
H      12.07      -3.21      13.86
H      12.15      -2.98      18.16
H      10.88      -4.85      15.05
H      13.58      -1.25      13.72
C      15.74       0.05      14.79
C      14.76       0.07      15.80
C      13.76      -1.02      15.87
C      13.28      -1.64      14.70
C      12.43      -2.73      14.77
H      13.67      -1.06      18.03
C      12.46      -2.61      17.18
C      13.31      -1.51      17.11
C      12.01      -3.26      16.01
C      11.15      -4.43      16.02
C      10.68      -5.08      17.11
C       9.84      -6.29      17.01
H      10.89      -4.76      18.13
O      18.14       7.33      23.64
O      15.85       7.27      23.58
C      20.08       0.81      12.01
