77

O      13.03      30.34      15.51
O      14.06      28.36      15.25
O       7.01      29.01      14.26
O       8.23      30.87      14.82
O       8.73      21.51      14.56
O      12.10      22.11      15.39
O      10.17      25.33      13.71
O      11.12      22.88      11.50
H      10.68      30.24      15.04
H       8.46      27.08      13.78
H      12.34      26.59      14.51
H      11.93      24.40      13.46
H      11.44      24.40      14.95
H      12.28      21.82      13.45
H      11.15      20.94      14.13
H       8.68      23.51      14.57
H       9.63      22.91      15.67
H       7.54      19.34      14.52
H       4.99      19.69      17.55
H       7.27      22.86      16.36
H      12.79      19.61      14.79
H      15.41      19.14      17.87
H      13.42      22.60      17.37
H      10.58      22.39       6.46
H      12.86      22.52       9.73
H       8.86      22.98      10.07
H       9.38      23.55      12.19
H       9.53      21.99      12.29
C      14.46      17.75      15.86
C       8.10      29.64      14.52
C      13.06      29.11      15.24
C      11.73      28.52      14.84
C      10.61      29.35      14.82
C       9.34      28.78      14.45
C       9.27      27.44      14.07
C      10.40      26.64      14.11
C      11.60      27.15      14.49
C      11.16      24.31      14.03
C      10.51      22.96      13.81
C      11.58      21.82      14.12
C       9.33      22.81      14.75
C       7.64      21.12      15.36
C       7.17      19.86      15.20
C       6.18      19.29      15.98
C       5.63      20.06      16.98
C       6.05      21.43      17.14
C       7.03      21.96      16.30
C       5.73      17.89      15.81
C       5.51      22.28      18.27
C      13.04      21.26      15.92
C      13.26      19.97      15.51
C      14.24      19.19      16.25
C      14.84      19.68      17.37
C      14.60      21.04      17.80
C      13.66      21.75      17.07
C      15.24      21.56      18.98
C       8.16      22.71       7.54
C      10.66      22.50       7.38
C      11.90      22.50       7.96
C      13.11      22.20       7.15
C      12.03      22.58       9.32
C      10.86      22.76      10.12
C       9.62      22.83       9.55
C      10.00      22.83      12.39
C       9.54      22.68       8.17
O      15.21      17.11      16.69
O      13.92      17.26      14.85
O       4.97      21.70      19.22
O       5.53      23.49      18.14
O       5.13      17.28      16.70
O       6.17      17.31      14.71
O       7.19      22.72       8.32
O       8.08      22.78       6.27
O      14.21      22.01       7.80
O      13.01      22.08       5.88
O      15.90      20.85      19.78
O      15.14      22.82      19.22
