77

O       7.74      15.06      15.42
O       6.55      14.97      17.33
O      13.67      14.90      17.58
O      12.61      14.84      15.56
O       6.71      10.94      24.46
O       5.43      10.85      26.29
O       7.28      21.48      22.94
O       8.24      23.41      23.34
O      15.22      10.50      23.19
O      15.39       9.75      25.35
O      14.33      15.27      28.48
O      15.58      13.41      28.80
O       5.87      14.20      29.78
O       6.86      16.19      29.31
O      11.10      18.16      22.61
O      12.45      14.49      23.79
O       9.16      15.39      24.99
O       9.85      15.50      20.90
O      14.18      22.15      22.07
O      13.49      23.32      23.80
H       8.01      15.22      19.27
H      12.07      15.27      19.42
H      10.15      14.85      15.86
H      11.77      16.08      21.39
H      11.48      14.57      21.76
H      12.52      16.53      23.79
H      11.65      15.95      24.97
H       8.81      14.89      23.08
H       9.93      14.00      23.76
H       8.16      15.98      27.19
H       5.83      12.78      27.78
H       7.96      13.03      24.39
H      13.69      12.48      23.34
H      15.53      11.97      26.80
H      13.41      15.27      26.16
H       8.90      19.67      22.92
H      10.75      23.20      23.44
H      12.94      19.82      22.58
H       9.90      17.53      24.12
H       9.26      17.30      22.70
C       7.61      14.99      16.69
C      12.66      14.85      16.86
C       8.88      15.02      17.46
C       8.83      15.15      18.83
C      10.02      15.19      19.54
C      11.29      15.14      18.92
C      11.33      14.90      17.56
C      10.12      14.91      16.79
C      11.10      15.47      21.74
C      10.67      15.90      23.17
C      11.89      15.84      24.03
C       9.57      14.90      23.68
C       8.22      14.64      25.65
C       7.83      15.16      26.90
C       6.94      14.44      27.73
C       6.44      13.25      27.26
C       6.83      12.73      26.02
C       7.70      13.39      25.22
C       6.32      11.43      25.57
C      13.37      13.90      24.70
C      13.88      12.75      24.20
C      14.67      12.03      25.00
C      14.97      12.48      26.25
C      14.48      13.67      26.72
C      13.70      14.43      25.90
C      15.16      10.67      24.54
C      14.84      14.17      28.12
C       6.52      15.06      29.03
C       8.27      22.17      23.18
C       9.69      20.16      22.97
C       9.64      21.51      23.16
C      10.80      22.30      23.23
C      12.05      21.67      22.99
C      13.33      22.46      22.94
C      12.12      20.24      22.77
C      10.94      19.49      22.83
C      10.09      17.27      23.21
