77

O      17.19       0.17      30.92
O      16.00       0.27      32.83
O      23.12       0.33      33.08
O      22.06       0.39      31.06
O      16.16       4.29      39.97
O      14.89       4.38      41.80
O      16.73      -6.25      38.44
O      17.69      -8.18      38.84
O      24.67       4.73      38.69
O      24.84       5.48      40.85
O      23.78      -0.04      43.98
O      25.03       1.83      44.31
O      15.32       1.03      45.28
O      16.31      -0.96      44.81
O      20.56      -2.92      38.11
O      21.90       0.74      39.29
O      18.61      -0.16      40.49
O      19.30      -0.26      36.41
O      23.64      -6.92      37.57
O      22.94      -8.09      39.30
H      17.46       0.02      34.77
H      21.52      -0.04      34.92
H      19.60       0.39      31.37
H      21.22      -0.84      36.89
H      20.93       0.66      37.26
H      21.97      -1.29      39.29
H      21.10      -0.72      40.47
H      18.26       0.34      38.58
H      19.38       1.23      39.26
H      17.61      -0.75      42.69
H      15.28       2.46      43.28
H      17.41       2.20      39.90
H      23.14       2.75      38.84
H      24.98       3.27      42.30
H      22.86      -0.04      41.66
H      18.35      -4.44      38.43
H      20.20      -7.97      38.94
H      22.39      -4.59      38.09
H      19.35      -2.30      39.63
H      18.71      -2.07      38.20
C      17.06       0.24      32.19
C      22.12       0.38      32.37
C      18.33       0.21      32.97
C      18.28       0.08      34.33
C      19.47       0.05      35.04
C      20.74       0.09      34.43
C      20.78       0.33      33.06
C      19.57       0.32      32.29
C      20.55      -0.23      37.24
C      20.12      -0.67      38.67
C      21.34      -0.61      39.54
C      19.02       0.33      39.19
C      17.67       0.59      41.15
C      17.28       0.07      42.40
C      16.40       0.80      43.23
C      15.89       1.99      42.76
C      16.28       2.50      41.52
C      17.15       1.84      40.72
C      15.77       3.80      41.07
C      22.82       1.33      40.21
C      23.33       2.48      39.71
C      24.12       3.20      40.50
C      24.43       2.75      41.75
C      23.93       1.56      42.22
C      23.15       0.80      41.41
C      24.61       4.56      40.04
C      24.29       1.06      43.63
C      15.97       0.17      44.53
C      17.72      -6.94      38.68
C      19.14      -4.93      38.47
C      19.09      -6.28      38.66
C      20.25      -7.07      38.74
C      21.50      -6.44      38.49
C      22.78      -7.22      38.44
C      21.57      -5.01      38.27
C      20.40      -4.26      38.34
C      19.54      -2.03      38.71
