77

O      17.19      15.40      15.58
O      16.00      15.50      13.67
O      23.12      15.56      13.42
O      22.06      15.62      15.45
O      16.16      19.52       6.54
O      14.89      19.61       4.71
O      16.73       8.98       8.06
O      17.69       7.06       7.66
O      24.67      19.96       7.82
O      24.84      20.72       5.65
O      23.78      15.20       2.52
O      25.03      17.06       2.20
O      15.32      16.27       1.22
O      16.31      14.27       1.70
O      20.56      12.31       8.39
O      21.90      15.97       7.21
O      18.61      15.07       6.01
O      19.30      14.97      10.10
O      23.64       8.31       8.93
O      22.94       7.15       7.20
H      17.46      15.25      11.74
H      21.52      15.19      11.59
H      19.60      15.62      15.14
H      21.22      14.39       9.62
H      20.93      15.89       9.25
H      21.97      13.94       7.22
H      21.10      14.52       6.04
H      18.26      15.58       7.93
H      19.38      16.46       7.25
H      17.61      14.48       3.82
H      15.28      17.69       3.22
H      17.41      17.43       6.61
H      23.14      17.99       7.67
H      24.98      18.50       4.21
H      22.86      15.19       4.85
H      18.35      10.79       8.08
H      20.20       7.26       7.56
H      22.39      10.64       8.42
H      19.35      12.93       6.88
H      18.71      13.16       8.30
C      17.06      15.47      14.32
C      22.12      15.62      14.14
C      18.33      15.45      13.54
C      18.28      15.31      12.18
C      19.47      15.28      11.47
C      20.74      15.32      12.08
C      20.78      15.56      13.45
C      19.57      15.55      14.21
C      20.55      15.00       9.26
C      20.12      14.56       7.83
C      21.34      14.63       6.97
C      19.02      15.56       7.32
C      17.67      15.82       5.35
C      17.28      15.31       4.10
C      16.40      16.03       3.28
C      15.89      17.22       3.74
C      16.28      17.74       4.98
C      17.15      17.08       5.79
C      15.77      19.03       5.44
C      22.82      16.57       6.30
C      23.33      17.71       6.80
C      24.12      18.43       6.01
C      24.43      17.99       4.75
C      23.93      16.79       4.28
C      23.15      16.03       5.10
C      24.61      19.79       6.46
C      24.29      16.29       2.88
C      15.97      15.40       1.98
C      17.72       8.29       7.83
C      19.14      10.31       8.04
C      19.09       8.96       7.85
C      20.25       8.16       7.77
C      21.50       8.79       8.01
C      22.78       8.01       8.06
C      21.57      10.23       8.23
C      20.40      10.97       8.17
C      19.54      13.20       7.79
