13

Co       1.72       7.93       4.26
C       1.10       9.40       6.79
C      -0.77       8.50       5.74
C       2.35       6.50       6.80
C       4.21       7.39       5.73
N       0.43       8.55       2.82
C       0.15       7.79       1.72
N       2.98       7.28       2.82
N       0.56       8.78       5.69
C       0.05       9.86       2.78
N       2.88       7.11       5.70
C       3.26       8.03       1.71
C       3.36       5.97       2.79
