240

C      16.82       4.17      26.67
C      15.89       4.05      25.61
C      16.29       3.95      24.26
C      17.66       3.86      23.96
C      18.62       3.81      24.99
C      18.20       3.98      26.34
C      16.01       4.13       0.98
C      14.92       5.02       1.20
C      14.43       5.26       2.51
C      15.09       4.71       3.62
C      16.19       3.85       3.43
C      16.58       3.51       2.12
C      15.61       8.52      12.92
C      16.18       8.49      11.61
C      15.54       9.07      10.50
C      14.30       9.69      10.66
C      13.61       9.58      11.88
C      14.26       9.00      13.00
C      16.37       8.14      14.08
C      17.50       7.25      14.08
C      18.21       6.97      15.28
C      17.73       7.44      16.51
C      16.68       8.36      16.54
C      16.08       8.76      15.33
C       8.42      16.47       6.47
C       8.44      15.57       5.37
C       8.54      15.99       4.03
C       8.72      17.36       3.76
C       8.85      18.29       4.82
C       8.69      17.84       6.16
C       8.18      15.99       7.79
C       7.25      14.94       8.06
C       7.01      14.48       9.38
C       7.63      15.13      10.46
C       8.56      16.16      10.24
C       8.87      16.52       8.91
C       4.27      15.59      19.50
C       4.18      16.20      18.21
C       3.58      15.55      17.12
C       3.07      14.26      17.28
C       3.30      13.54      18.46
C       3.88      14.21      19.58
C       4.67      16.35      20.66
C       5.50      17.52      20.61
C       5.78      18.29      21.77
C       5.35      17.82      23.03
C       4.52      16.70      23.12
C       4.13      16.04      21.94
C       2.70       2.77      24.23
C       2.50       1.88      23.14
C       3.60       1.39      22.39
C       4.94       1.72      22.74
C       5.12       2.61      23.84
C       4.03       3.11      24.56
C       2.09      19.55      20.97
C       1.00       0.64      21.73
C       1.66       3.27      25.03
C       6.07       1.30      22.04
C      10.14      10.77      11.82
C      10.18      11.44      10.57
C       8.98      11.92       9.96
C       7.73      11.79      10.62
C       7.71      11.13      11.87
C       8.88      10.62      12.45
C      10.25      12.68       8.07
C      11.44      12.26       8.69
C      11.27      10.22      12.46
C       6.52      12.25      10.09
C      10.00       2.38       4.38
C      10.92       2.26       3.31
C      11.66       3.39       2.84
C      11.53       4.66       3.48
C      10.61       4.76       4.55
C       9.87       3.65       4.99
C      12.66       2.03       1.15
C      11.97       0.91       1.62
C       9.23       1.32       4.90
C      12.15       5.84       3.05
C       2.31      10.05      18.07
C       1.54      10.23      16.89
C       1.20       9.13      16.06
C       1.55       7.81      16.43
C       2.29       7.63      17.62
C       2.67       8.73      18.42
C      19.48      10.62      14.52
C       0.40      11.70      15.36
C       2.76      11.11      18.88
C       1.20       6.67      15.69
C      15.74       4.99      21.19
C      15.46       5.02      19.79
C      15.72       6.19      19.02
C      16.27       7.36      19.62
C      16.59       7.28      20.99
C      16.35       6.12      21.75
C      14.71       5.12      17.12
C      14.51       3.95      17.87
C      15.19       3.96      22.00
C      16.36       8.63      19.00
C      16.93       7.54       7.54
C      17.34       7.39       6.19
C      17.40       6.10       5.59
C      17.05       4.94       6.32
C      16.80       5.09       7.71
C      16.72       6.36       8.30
C      18.26       7.10       3.58
C      18.15       8.37       4.16
C      16.59       8.82       8.05
C      17.03       3.63       5.77
C       7.56      15.55       0.89
C       7.89      15.63      26.50
C       6.75      15.90      25.69
C       5.56      16.43      26.26
C       5.27      16.41       0.63
C       6.41      16.17       1.43
C       7.90      14.97      23.80
C       9.04      14.74      24.59
C       8.54      14.95       1.73
C       4.29      16.46      25.61
C       5.02      17.11      14.40
C       5.22      17.60      13.08
C       6.50      17.56      12.46
C       7.62      17.04      13.16
C       7.45      16.70      14.52
C       6.17      16.70      15.11
C       5.58      18.60      10.50
C       4.31      18.60      11.09
C       3.71      16.91      14.89
C       8.91      16.93      12.58
H      14.89       4.03      25.80
H      17.94       3.69      22.99
H      14.75       4.91       4.56
H      17.31       2.81       2.02
H      19.11       2.88       0.54
H      13.49       5.51       0.03
H      17.14       8.19      11.46
H      13.83      10.07       9.83
H      18.24       7.23      17.37
H      15.42       9.53      15.38
H      13.28       9.57      14.53
H      18.72       6.88      12.67
H       8.41      14.56       5.54
H       8.92      17.66       2.80
H       7.46      14.79      11.41
H       9.62      17.20       8.78
H       9.60      19.07       7.29
H       6.71      13.50       6.91
H       4.36      17.19      18.08
H       2.66      13.78      16.47
H       5.56      18.37      23.87
H       3.42      15.31      22.03
H       3.39      13.13      21.07
H       5.83      18.72      19.16
H       1.95      18.93      20.17
H      19.41       0.37      21.50
H       4.23       3.74      25.35
H       6.07       2.89      24.12
H       1.85       3.45      25.99
H       6.75       1.99      21.82
H      10.27      13.13       7.15
H      12.34      12.38       8.24
H       8.80      10.14      13.35
H       6.82      11.00      12.37
H      11.22       9.97      13.41
H       5.75      11.62      10.12
H      13.30       1.95       0.35
H      12.08      19.35       1.19
H       9.22       3.79       5.77
H      10.47       5.65       5.02
H       8.59       1.50       5.64
H      11.60       6.66       3.06
H      18.96      10.75      13.65
H      19.47      12.65      15.12
H       3.23       8.55      19.26
H       2.57       6.69      17.92
H       2.99      10.95      19.83
H       1.92       6.01      15.51
H      14.43       5.17      16.14
H      14.07       3.13      17.46
H      16.51       6.19      22.76
H      16.97       8.10      21.48
H      14.39       3.45      21.61
H      16.29       9.44      19.62
H      18.60       6.98       2.63
H      18.42       9.21       3.65
H      16.43       6.42       9.28
H      16.57       4.28       8.28
H      16.45       9.58       7.38
H      17.25       2.85       6.40
H       7.89      14.72      22.81
H       9.88      14.31      24.19
H       6.32      16.32       2.44
H       4.44      16.77       1.10
H       9.03      14.15       1.34
H       3.48      16.36      26.23
H       5.73      18.97       9.56
H       3.50      18.98      10.60
H       6.09      16.34      16.06
H       8.24      16.34      15.06
H       2.95      17.02      14.21
H       9.72      17.06      13.20
N      16.86       3.29       4.47
N      13.36       6.04       2.66
N       0.48       3.45      24.58
N      15.32       3.80      23.33
N      16.27       8.95      17.69
N      19.40       6.35      15.22
N      12.36      10.02      11.81
N      16.03       8.99       9.26
N       9.21      16.77      11.26
N       6.26      13.40       9.57
N       9.35       0.11       4.49
N       8.66      15.05       3.07
N       3.98      16.31      24.30
N       6.38      19.46      21.66
N       2.94      12.27      18.38
N       3.38      16.08      15.90
N       3.34       0.58      21.33
N       1.25       1.47      22.77
N       9.08      12.49       8.73
N      11.35      11.65       9.90
N      12.48       3.21       1.77
N      11.12       1.08       2.67
N       0.52       9.38      14.90
N       1.11      11.46      16.50
N      15.29       6.18      17.73
N      14.87       3.96      19.17
N      17.88       6.03       4.32
N      17.71       8.46       5.44
N       6.82      15.52      24.38
N       8.98      15.06      25.90
N       6.61      18.08      11.21
N       4.19      18.12      12.35
O      18.83       3.79       0.29
O      14.42       5.79       0.18
O      13.50       8.72      14.09
O      17.85       6.53      12.98
O       8.67      18.78       7.15
O       6.44      14.44       7.07
O       4.22      13.45      20.65
O       6.18      17.86      19.47
