20

H       3.71      -0.98       4.36
H       0.99      -0.94       6.65
H      -0.51      -1.60       4.76
H      -0.03      -0.31       3.60
H       0.20      -2.08       3.18
H       3.81      -4.10       6.56
H       3.02      -3.65       5.02
H       4.42      -2.68       5.66
C       2.45      -2.53       8.15
C       1.64      -1.29       4.58
C       2.76      -1.04       3.85
C       1.72      -1.47       6.06
C       2.54      -2.34       6.69
C       2.81      -0.74       2.39
C       0.25      -1.32       3.99
C       3.50      -3.24       5.93
O       3.61      -2.72       8.76
O       1.23      -2.57       8.70
O       4.03      -0.67       1.85
O       1.65      -0.52       1.79
