30

C       9.79      15.74      18.99
C       9.85      14.55      18.25
C       8.85      13.57      18.36
C       7.75      13.73      19.20
H      10.71      14.40      17.60
H       8.95      12.66      17.78
H       6.98      12.97      19.28
H       5.76      14.45      20.93
H       5.64      16.58      22.18
H       8.34      19.27      21.81
H       6.07      18.17      23.58
H       8.17      21.26      22.62
H       8.39      23.18      24.22
H       7.32      23.03      26.48
H       5.75      19.30      25.61
C       6.56      15.18      20.84
C       6.50      16.36      21.54
C       7.54      17.32      21.40
C       6.80      18.88      23.20
C       6.94      20.10      23.99
C       7.69      21.23      23.60
C       7.82      22.30      24.49
C       6.33      20.15      25.26
C       7.64      14.92      19.96
N       8.58      17.09      20.58
N       6.47      21.17      26.12
C       8.65      15.93      19.86
O      10.72      16.68      18.92
C       7.21      22.23      25.75
C       7.58      18.56      22.14
