30

N       5.54      17.73      18.50
N       7.65      13.65      12.96
H       3.41      20.42      21.47
H       5.17      22.16      21.30
H       7.13      21.84      19.80
H       8.36      20.37      18.14
H       8.47      18.23      16.90
H       5.78      15.54      17.26
H       8.05      16.64      15.50
H       5.95      13.55      16.45
O       3.40      18.13      20.16
H       6.80      11.79      12.59
H       8.37      15.51      13.46
H       5.73      11.63      14.86
C       4.33      19.07      20.09
C       4.27      20.26      20.82
C       5.27      21.24      20.71
C       6.37      21.08      19.88
C       6.48      19.89      19.12
C       5.47      18.88      19.22
C       7.56      19.63      18.24
C       7.62      18.45      17.54
C       6.58      17.50      17.67
C       6.54      16.25      16.93
C       7.31      15.93      15.87
C       7.18      14.71      15.09
C       6.43      13.58      15.47
C       6.30      12.52      14.59
C       6.91      12.58      13.33
C       7.78      14.67      13.82
