220

C       0.33       0.30       5.28
C      11.55       0.35       5.71
C      11.53       0.35       7.10
C       0.29       0.32       7.58
C       0.54       0.32       8.97
C      12.02       0.36       9.90
C      10.69       0.39       9.37
C      10.44       0.39       7.99
C      10.50       0.39       4.78
C      10.79       0.39       3.41
C      12.13       0.35       2.93
C       0.62       0.29       3.89
C       2.20       1.43       6.47
C       3.52       0.95       6.55
C       3.50      12.12       6.54
C       2.17      11.68       6.48
C       4.57      11.21       6.55
C       4.30       9.84       6.47
C       2.97       9.35       6.41
C       1.90      10.29       6.44
C       1.96       2.82       6.39
C       3.05       3.73       6.39
C       4.37       3.22       6.54
C       4.61       1.83       6.61
C       1.25       0.29       6.45
C      12.50       0.43      30.39
C      12.47      11.68      30.88
C      12.49      11.72      32.27
C      12.53       0.49      32.69
C       0.02       0.78      34.08
C       0.03      12.29      35.04
C      12.53      10.95      34.56
C      12.48      10.66      33.18
C      12.43      10.58      30.01
C      12.41      10.81      28.62
C      12.41      12.13      28.08
C      12.48       0.66      28.99
C      11.38       2.35      31.49
C      11.85       3.67      31.39
C       0.69       3.65      31.39
C       1.13       2.33      31.46
C       1.59       4.73      31.38
C       2.97       4.46      31.45
C       3.46       3.12      31.52
C       2.52       2.05      31.51
C       9.99       2.11      31.57
C       9.08       3.20      31.56
C       9.59       4.51      31.39
C      10.97       4.76      31.32
C      12.53       1.40      31.51
C      12.46       0.35      45.25
C       1.22       0.45      44.80
C       1.22       0.48      43.40
C      12.45       0.39      42.95
C      12.18       0.36      41.57
C       0.69       0.39      40.63
C       2.02       0.48      41.12
C       2.29       0.53      42.50
C       2.30       0.53      45.70
C       2.03       0.48      47.08
C       0.71       0.32      47.58
C      12.20       0.29      46.64
C      10.56       1.48      44.11
C       9.25       1.00      44.05
C       9.27      12.17      44.05
C      10.59      11.73      44.08
C       8.19      11.26      44.06
C       8.47       9.89      44.13
C       9.80       9.40      44.17
C      10.87      10.34      44.12
C      10.80       2.87      44.18
C       9.71       3.78      44.21
C       8.40       3.26      44.08
C       8.15       1.88      44.01
C      11.52       0.34      44.10
C       0.21       0.58      20.14
C       0.28      11.83      19.65
C       0.28      11.86      18.26
C       0.21       0.63      17.83
C       0.14       0.93      16.45
C       0.11      12.43      15.51
C       0.20      11.09      15.96
C       0.29      10.80      17.34
C       0.31      10.73      20.53
C       0.24      10.96      21.91
C       0.15      12.28      22.44
C       0.15       0.81      21.53
C       1.33       2.50      19.04
C       0.85       3.81      19.13
C      12.02       3.80      19.12
C      11.58       2.47      19.05
C      11.12       4.87      19.13
C       9.74       4.60      19.05
C       9.25       3.26      18.98
C      10.19       2.19      19.00
C       2.72       2.26      18.97
C       3.63       3.34      18.97
C       3.12       4.66      19.13
C       1.74       4.90      19.20
C       0.19       1.55      19.01
C      12.44       0.10      14.12
C       0.82       0.74      12.00
C      12.21       0.31      11.32
C      11.27      12.24      13.45
C      10.22      11.75      14.04
C       0.47       0.19      39.25
C      12.30       1.12      37.15
C       0.16      12.51      36.45
C       0.88      11.58      38.56
C       1.40      10.53      39.13
C       0.46       0.27      48.99
C      11.63       1.04       0.57
C      12.41       0.36       1.53
C       1.24      12.12      49.95
C       2.23      11.32      49.67
C       0.02      12.44      23.86
C      11.60      11.47      25.83
C      12.37      12.31      26.67
C       0.72       0.80      24.69
C       1.58       1.67      24.25
C       2.87       5.14       6.22
C       1.95       7.17       7.13
C       2.77       7.95       6.28
C       3.62       5.92       5.31
C       4.41       5.45       4.39
C       7.67       3.02      31.73
C       5.64       2.09      30.82
C       4.86       2.93      31.65
C       6.88       3.78      32.63
C       7.35       4.58      33.54
C       9.90       5.19      44.37
C      10.81       7.22      43.44
C      10.00       8.00      44.29
C       9.16       5.98      45.29
C       8.38       5.51      46.22
C       5.04       3.16      18.80
C       7.07       2.24      19.70
C       7.85       3.07      18.86
C       5.82       3.92      17.89
C       5.35       4.71      16.97
H       5.17       3.85       6.58
H       5.57       1.48       6.68
H       5.54      11.54       6.57
H       5.09       9.19       6.46
H       0.93       9.97       6.37
H       1.00       3.16       6.29
H       1.50       0.27       9.29
H       9.88       0.43      10.00
H       9.48       0.42       7.64
H       1.60       0.27       3.60
H       9.52       0.41       5.10
H      10.01       0.40       2.75
H       8.96       5.32      31.34
H      11.32       5.71      31.23
H       1.26       5.69      31.34
H       3.61       5.25      31.45
H       2.84       1.09      31.58
H       9.65       1.15      31.68
H       0.08       1.76      34.37
H      12.52      10.16      35.20
H      12.45       9.68      32.87
H      12.49       1.63      28.64
H      12.43       9.62      30.37
H      12.40       9.99      28.01
H       7.59       3.89      44.05
H       7.19       1.53      43.95
H       7.23      11.59      44.05
H       7.68       9.24      44.16
H      11.84      10.02      44.17
H      11.76       3.21      44.26
H      11.21       0.27      41.25
H       2.81       0.48      40.46
H       3.26       0.57      42.83
H      11.23       0.21      46.96
H       3.26       0.63      45.37
H       2.82       0.58      47.72
H       3.75       5.46      19.18
H       1.39       5.86      19.28
H      11.44       5.84      19.16
H       9.09       5.39      19.04
H       9.87       1.22      18.93
H       3.06       1.30      18.86
H       0.04       1.90      16.15
H       0.17      10.31      15.30
H       0.32       9.82      17.65
H       0.05       1.77      21.87
H       0.35       9.77      20.17
H       0.26      10.15      22.53
H       1.62       1.14      11.51
H      11.86       1.90      36.66
H      10.83       1.62       0.84
H      10.97      10.76      26.20
H       1.37       7.61       7.85
H       5.20       1.51      30.11
H      11.38       7.65      42.71
H       7.51       1.66      20.41
N       0.89       0.61      13.36
N      11.22      12.37      12.10
N       9.30      11.31      14.56
N      12.47       1.19      38.50
N       0.70      11.53      37.22
N       1.86       9.61      39.64
N      11.96       0.98      49.48
N       0.90      12.20       1.04
N       3.10      10.62      49.42
N      11.76      11.56      24.49
N       0.61       0.67      26.05
N       2.34       2.44      23.87
N       2.06       5.81       7.09
N       3.56       7.27       5.41
N       5.11       5.03       3.58
N       7.00       2.20      30.87
N       5.53       3.72      32.53
N       7.77       5.29      34.34
N      10.70       5.86      43.49
N       9.23       7.32      45.19
N       7.69       5.09      47.04
N       5.72       2.35      19.66
N       7.17       3.86      17.98
N       4.93       5.42      16.16
