28

H       8.54       7.42       8.30
H       7.12       9.02       4.80
H       6.31      11.03       5.94
H       6.61      11.28       8.42
H       5.53       8.47      13.31
H       5.68      10.19      17.06
H       7.63      11.57      16.47
H       8.64      11.30      14.16
H       5.30      10.39      11.66
H       5.40      10.28      10.07
C       7.83       9.43       9.98
C       7.57       9.34       8.56
C       8.04       8.24       7.80
C       7.24       9.11       5.86
C       6.77      10.25       6.51
C       6.91      10.38       7.89
C       7.65       9.66      12.21
C       7.11       9.90      13.56
C       6.00       9.17      13.98
C       6.09      10.12      16.07
C       7.21      10.89      15.74
C       7.74      10.78      14.45
N       9.05       9.24      10.56
N       8.92       9.43      11.93
N       6.99       9.69      11.02
N       5.60       9.71      10.92
N       7.87       8.07       6.47
N       5.48       9.26      15.22
