19

P       1.17       1.54       3.57
H       3.31       1.41      -1.24
H       3.95      -1.04      -1.34
H       2.77      -2.65       0.20
H       1.10      -1.74       1.83
H      -0.21       1.73       1.62
H      -0.41       0.15       2.43
H      -0.30       1.84       5.11
C       2.86       0.64      -0.62
C       3.19      -0.70      -0.64
C       2.54      -1.59       0.22
C       1.60      -1.09       1.12
C       1.28       0.27       1.13
C       0.32       0.89       2.08
N       1.91       1.11       0.25
O       1.62       0.35       4.41
O       0.04       2.38       4.33
O       2.28       2.49       3.12
O       1.58       2.39       0.21
