232

Cd      10.09       6.82      18.17
Cd       1.61       6.81       9.20
Cd       0.99       9.84       0.08
Cd       9.47       9.84       9.05
H       1.21       5.78       2.52
H       2.27       3.85       3.67
H       5.31       3.73       0.61
H       5.49       5.71      17.74
H       3.27       1.41       3.64
H       3.76       2.74       4.73
H       5.17      16.42       2.85
H       6.54       0.88       2.85
H       9.06      12.13       4.23
H       7.64      13.93       5.35
H       6.98       7.94      17.07
H       8.77       4.23      16.20
H       6.62       4.62      14.47
H       4.65       6.49      14.57
H       4.95       7.82      15.68
H       3.84       8.31      12.88
H       4.90       9.64      12.46
H       5.11      11.62      14.18
H       2.63       8.33      15.20
H       3.59      12.25      16.41
H       9.22       5.78       6.60
H       8.17       3.83       5.50
H       5.14       3.74       8.57
H       6.20       5.72       9.64
H       7.18       1.40       5.50
H       6.67       2.75       4.45
H       5.31      16.42       6.32
H       3.89       0.89       6.30
H       1.42      12.13       4.90
H       2.85      13.94       3.79
H       4.72       7.95      10.31
H       2.93       4.24      11.18
H       5.09       4.62      12.90
H       7.05       6.48      12.81
H       6.77       7.82      11.70
H       7.87       8.31      14.50
H       6.80       9.65      14.91
H       6.60      11.62      13.18
H       9.08       8.32      12.17
H       8.11      12.24      10.95
H       9.87      10.87      15.73
H       8.81      12.80      14.58
H       5.77      12.92      17.64
H       5.59      10.94       0.50
H       7.81      15.25      14.60
H       7.31      13.92      13.51
H       5.91       0.23      15.40
H       4.54      15.77      15.39
H       2.02       4.53      14.01
H       3.44       2.73      12.90
H       4.10       8.71       1.18
H       2.31      12.42       2.05
H       4.46      12.04       3.78
H       6.43      10.16       3.68
H       6.13       8.83       2.57
H       7.24       8.35       5.36
H       6.18       7.01       5.79
H       5.97       5.04       4.06
H       8.45       8.33       3.05
H       7.49       4.40       1.84
H       1.86      10.87      11.64
H       2.91      12.83      12.75
H       5.94      12.92       9.68
H       4.87      10.94       8.60
H       3.90      15.25      12.74
H       4.41      13.90      13.80
H       5.77       0.23      11.93
H       7.18      15.77      11.95
H       9.65       4.52      13.35
H       8.23       2.71      14.46
H       6.36       8.70       7.94
H       8.15      12.42       7.06
H       5.99      12.03       5.35
H       4.03      10.17       5.44
H       4.31       8.84       6.55
H       3.21       8.34       3.75
H       4.28       7.01       3.33
H       4.48       5.04       5.06
H       2.00       8.33       6.07
H       2.96       4.41       7.29
C       2.19       7.18       0.38
C       2.69       5.90       0.97
C       2.12       5.34       2.12
C       2.72       4.25       2.76
C       3.90       3.71       2.23
C       4.43       4.20       1.03
C       3.83       5.29       0.41
C       4.12       2.03       3.97
C       5.88       0.29       3.50
C       7.24      14.94       3.42
C       6.58      14.60       1.94
C       7.65      13.71       1.46
C       8.75      13.00       2.19
C       8.60      12.95       3.69
C       7.84      13.88       4.28
C       9.39      11.78       1.54
C       7.22       7.01      16.58
C       8.09       5.07      16.10
C       7.03       5.25      15.24
C       5.41       7.21      14.89
C       4.63       8.96      13.27
C       4.39      11.04      14.73
C       3.08       9.32      15.23
C       3.62      11.34      15.82
C       2.58      15.19       7.04
C       1.56      14.38       7.74
C       8.26       7.19       8.75
C       7.75       5.91       8.17
C       8.31       5.34       7.02
C       7.72       4.24       6.40
C       6.54       3.70       6.94
C       6.02       4.21       8.13
C       6.61       5.30       8.73
C       6.33       2.03       5.20
C       4.56       0.29       5.66
C       3.24      14.95       5.73
C       3.89      14.62       7.21
C       2.81      13.72       7.69
C       1.72      13.00       6.94
C       1.88      12.96       5.44
C       2.65      13.89       4.86
C       1.09      11.78       7.58
C       4.48       7.01      10.80
C       3.61       5.08      11.28
C       4.67       5.26      12.14
C       6.30       7.21      12.48
C       7.08       8.96      14.10
C       7.32      11.03      12.64
C       8.63       9.31      12.15
C       8.08      11.34      11.54
C       7.88      15.18       2.10
C       8.90      14.38       1.39
C       8.89       9.48      17.86
C       8.39      10.76      17.28
C       8.96      11.32      16.13
C       8.36      12.41      15.49
C       7.18      12.95      16.01
C       6.65      12.45      17.22
C       7.25      11.37      17.83
C       6.96      14.62      14.28
C       5.20      16.37      14.75
C       3.84       1.71      14.83
C       4.50       2.05      16.31
C       3.42       2.95      16.79
C       2.32       3.66      16.06
C       2.48       3.70      14.55
C       3.24       2.78      13.96
C       1.69       4.87      16.70
C       3.86       9.65       1.66
C       2.99      11.59       2.14
C       4.05      11.40       3.01
C       5.67       9.44       3.36
C       6.45       7.70       4.98
C       6.69       5.62       3.52
C       8.00       7.34       3.02
C       7.46       5.31       2.42
C       8.50       1.46      11.21
C       9.52       2.27      10.50
C       2.82       9.47       9.50
C       3.33      10.74      10.08
C       2.76      11.31      11.23
C       3.36      12.42      11.85
C       4.54      12.96      11.31
C       5.06      12.45      10.11
C       4.46      11.35       9.52
C       4.75      14.63      13.05
C       6.52      16.37      12.59
C       7.84       1.70      12.52
C       7.19       2.04      11.03
C       8.27       2.94      10.56
C       9.36       3.65      11.30
C       9.20       3.70      12.81
C       8.43       2.77      13.39
C       9.99       4.87      10.66
C       6.60       9.64       7.45
C       7.47      11.58       6.97
C       6.41      11.40       6.11
C       4.78       9.44       5.76
C       4.00       7.70       4.14
C       3.76       5.62       5.61
C       2.45       7.34       6.10
C       2.99       5.32       6.70
C       3.20       1.47      16.15
C       2.18       2.28      16.86
C       5.22       1.16       4.58
C       5.86      15.50      13.67
C       5.85       8.09      13.69
C       5.22       8.56       4.56
N       8.19       6.17      16.93
N       6.49       6.49      15.55
N       4.04       9.75      14.35
N       2.82      10.26      16.13
N       3.50       6.18      10.45
N       5.21       6.50      11.83
N       7.67       9.74      13.02
N       8.89      10.25      11.24
N       2.89      10.48       1.31
N       4.59      10.16       2.70
N       7.04       6.91       3.90
N       8.26       6.39       2.12
N       7.58      10.48       7.80
N       5.87      10.16       6.42
N       3.41       6.91       5.23
N       2.19       6.40       7.00
O       4.12       7.81      17.77
O       1.08       7.67       0.88
O       4.66       2.73       2.84
O       6.66      15.91       4.19
O       9.31      10.68       2.16
O       0.17      11.95       0.42
O       7.58       7.80       9.61
O       9.37       7.67       8.25
O       5.79       2.70       6.35
O       3.82      15.92       4.96
O       1.21      10.69       6.96
O      10.29      11.95       8.69
O       6.96       8.85       0.48
O      10.00       8.99      17.37
O       6.42      13.93      15.41
O       4.42       0.75      14.06
O       1.77       5.97      16.08
O      10.91       4.70      17.82
O       3.50       8.85       8.64
O       1.71       8.98       9.99
O       5.28      13.95      11.90
O       7.26       0.74      13.28
O       9.87       5.97      11.28
O       0.79       4.70       9.56
