26

H       4.51      10.95      16.90
H       7.13       8.87      15.39
C       4.18       8.94      16.13
C       4.03      10.46      16.03
H       6.53      11.13      15.79
C       6.35       9.21      14.73
H       4.61       8.65      17.08
H       4.58       8.14      12.85
H       3.13       8.26      13.86
H       4.89      10.37      12.69
H       6.68       9.01      13.69
H       3.17      10.52      13.16
C       5.38       6.97      15.06
H       6.70      11.25      14.01
C       4.15       8.65      13.72
C       5.02       8.40      14.93
C       4.65      10.98      14.71
O       5.17       6.43      16.23
C       6.15      10.73      14.83
O       6.15       6.49      14.12
C       4.15      10.16      13.49
O       3.32      12.85      15.09
H       3.18       8.46      16.14
O       4.65      12.78      13.19
C       4.30      12.38      14.38
H       2.98      10.74      16.12
