26

H      10.16       8.17      12.76
C       9.83      10.18      13.53
H      12.78      10.25      14.27
H      12.18       8.00      13.87
C       9.67       8.66      13.63
H      10.26      10.47      12.58
C      11.99       9.91      14.93
H      10.22      10.98      16.81
H       8.77      10.85      15.80
H      10.54       8.75      16.98
H      12.32      10.11      15.97
H       8.81       8.60      16.50
H      12.35       7.87      15.65
C      11.02      12.15      14.60
C       9.80      10.47      15.94
C      10.66      10.72      14.73
C      10.30       8.14      14.96
C      11.80       8.39      14.83
O      10.81      12.69      13.43
C       9.79       8.95      16.17
O      11.79      12.63      15.54
O       8.97       6.27      14.57
H       8.83      10.66      13.52
O      10.30       6.34      16.47
C       9.95       6.74      15.28
H       8.62       8.38      13.54
