26

Br      10.48       7.55       0.41
Br      10.47      11.16      -0.42
O       6.21      12.46       0.85
O       6.21       6.25      -0.85
H       9.26       8.78      -1.29
H       9.26       9.93       1.29
H       6.87       8.55      -2.29
H       6.87      10.16       2.29
H       7.70      10.73      -1.93
H       7.70       7.97       1.93
H       6.04       7.74       1.29
H       6.04      10.96      -1.29
H       5.65       9.97       0.99
H       5.65       8.73      -0.99
C       9.01       8.64      -0.28
C       9.01      10.07       0.28
C       6.71       8.89      -1.26
C       6.71       9.82       1.26
O       8.50      12.67       1.05
C       6.98      10.40      -1.15
O       8.50       6.04      -1.05
C       6.99       8.31       1.15
C       7.57       8.06      -0.24
C       7.56      10.64       0.24
C       7.43      12.06       0.64
C       7.43       6.64      -0.64
