26

Br       4.83       7.69      10.30
Br       4.83      11.30       9.47
O       0.56      12.60      10.73
O       0.57       6.38       9.04
H       3.61       8.92       8.60
H       3.61      10.07      11.17
H       1.22       8.68       7.60
H       1.22      10.30      12.18
H       2.05      10.87       7.96
H       2.06       8.11      11.81
H       0.39       7.88      11.18
H       0.39      11.10       8.59
H       0.00      10.11      10.88
H       0.00       8.87       8.90
C       3.37       8.78       9.61
C       3.37      10.20      10.16
C       1.07       9.03       8.62
C       1.07       9.95      11.15
O       2.85      12.80      10.94
C       1.34       8.45      11.04
C       1.34      10.54       8.74
O       2.85       6.18       8.84
C       1.92       8.20       9.65
C       1.92      10.78      10.13
C       1.78      12.20      10.53
C       1.78       6.78       9.25
