16

C      13.74      11.60      15.41
C      13.78       7.78      17.29
C      13.77       9.10      16.65
C      13.76       9.19      15.25
C      13.73      12.93      14.70
C      13.75      10.27      17.43
C      13.74      11.52      16.81
C      13.75      10.43      14.64
O      13.71      12.95      13.44
O      13.79       6.72      16.53
O      13.75      13.98      15.46
O      13.79       7.64      18.57
H      13.77       8.27      14.66
H      13.75      10.19      18.52
H      13.73      12.44      17.39
H      13.74      10.54      13.55
