184

Ag       8.18       6.24      14.15
Ag       2.02       3.95       0.33
Ag       9.05       3.08       7.24
Ag       1.15       7.11      21.06
Ag       7.11       1.15       6.59
Ag       3.08       9.05      20.41
Ag       6.24       8.18      13.50
Ag       3.95       2.02      27.32
H       0.37       7.55      18.36
H       6.84       9.70      18.04
H       7.04       0.02      20.49
H       8.96       9.26      21.78
H       0.86       9.53      17.03
H       2.66       9.87      15.37
H       2.36       8.90      13.04
H       0.40       7.42      12.62
H       9.82       2.65       4.54
H       3.35       0.50       4.22
H       3.15      10.17       6.67
H       1.23       0.93       7.96
H       9.33       0.66       3.21
H       7.53       0.33       1.54
H       7.83       1.29      26.86
H       9.79       2.77      26.44
H       7.74       5.47      11.45
H       5.59       1.75      11.13
H       5.08       1.95      13.58
H       6.03       3.87      14.87
H       5.76       5.96      10.12
H       5.42       7.76       8.45
H       6.38       7.46       6.12
H       7.87       5.50       5.70
H       2.45       4.73      25.27
H       4.60       8.45      24.96
H       5.12       8.25      27.41
H       4.17       6.33       1.05
H       4.43       4.24      23.94
H       4.77       2.43      22.28
H       3.81       2.74      19.95
H       2.33       4.69      19.53
H       4.73       2.45       2.38
H       8.45       4.60       2.69
H       8.25       5.12       0.24
H       6.33       4.17      26.60
H       4.24       4.43       3.70
H       2.43       4.77       5.37
H       2.74       3.81       7.70
H       4.69       2.33       8.12
H       5.47       7.74      16.20
H       1.75       5.59      16.52
H       1.95       5.08      14.07
H       3.87       6.03      12.78
H       5.96       5.76      17.53
H       7.76       5.42      19.19
H       7.46       6.38      21.52
H       5.50       7.87      21.94
H       7.55       0.37       9.29
H       9.70       6.84       9.60
H       0.02       7.04       7.15
H       9.26       8.96       5.86
H       9.53       0.86      10.62
H       9.87       2.66      12.28
H       8.90       2.36      14.61
H       7.42       0.40      15.03
H       2.65       9.82      23.11
H       0.50       3.35      23.43
H      10.17       3.15      20.98
H       0.93       1.23      19.69
H       0.66       9.33      24.44
H       0.33       7.53      26.11
H       1.29       7.83       0.79
H       2.77       9.79       1.21
C       9.76       8.14      18.79
C       8.73       8.64      17.98
C       7.70       9.36      18.62
C       7.80       9.62      19.98
C       8.86       9.09      20.71
C       8.67       8.21      16.57
C       9.85       8.28      15.74
C       0.80       9.06      16.05
C       1.79       9.27      15.11
C       1.63       8.73      13.82
C       0.54       7.91      13.58
C       0.43       2.06       4.97
C       1.46       1.56       4.16
C       2.49       0.84       4.80
C       2.39       0.57       6.16
C       1.33       1.10       6.89
C       1.52       1.98       2.75
C       0.34       1.91       1.91
C       9.40       1.13       2.23
C       8.40       0.92       1.29
C       8.56       1.47      27.65
C       9.65       2.29      27.41
C       7.15       4.66      11.88
C       6.65       3.63      11.07
C       5.93       2.60      11.71
C       5.66       2.71      13.07
C       6.20       3.77      13.80
C       7.08       3.57       9.66
C       7.01       4.76       8.82
C       6.23       5.89       9.14
C       6.02       6.89       8.20
C       6.56       6.73       6.91
C       7.38       5.63       6.67
C       3.04       5.53      25.70
C       3.54       6.56      24.89
C       4.26       7.59      25.53
C       4.53       7.49      26.89
C       4.00       6.42      27.63
C       3.12       6.62      23.48
C       3.18       5.44      22.65
C       3.96       4.30      22.97
C       4.17       3.31      22.03
C       3.63       3.47      20.73
C       2.81       4.56      20.49
C       5.53       3.04       1.94
C       6.56       3.54       2.75
C       7.59       4.26       2.12
C       7.49       4.53       0.75
C       6.42       4.00       0.02
C       6.62       3.12       4.17
C       5.44       3.18       5.00
C       4.30       3.96       4.68
C       3.31       4.17       5.62
C       3.47       3.63       6.91
C       4.56       2.81       7.15
C       4.66       7.15      15.77
C       3.63       6.65      16.58
C       2.60       5.93      15.94
C       2.71       5.66      14.58
C       3.77       6.20      13.85
C       3.57       7.08      17.99
C       4.76       7.01      18.82
C       5.89       6.23      18.51
C       6.89       6.02      19.45
C       6.73       6.56      20.74
C       5.63       7.38      20.98
C       8.14       9.76       8.86
C       8.64       8.73       9.67
C       9.36       7.70       9.03
C       9.62       7.80       7.67
C       9.09       8.86       6.93
C       8.21       8.67      11.08
C       8.28       9.85      11.91
C       9.06       0.80      11.59
C       9.27       1.79      12.53
C       8.73       1.63      13.83
C       7.91       0.54      14.07
C       2.06       0.43      22.68
C       1.56       1.46      23.49
C       0.84       2.49      22.85
C       0.57       2.39      21.49
C       1.10       1.33      20.76
C       1.98       1.52      24.90
C       1.91       0.34      25.74
C       1.13       9.40      25.42
C       0.92       8.40      26.36
C       1.47       8.56       0.00
C       2.29       9.65       0.24
N       9.81       8.32      20.13
N       9.79       7.63      14.52
N       0.38       1.87       6.30
N       0.40       2.57       0.69
N       6.97       4.72      13.22
N       7.66       4.70       7.60
N       3.22       5.48      27.04
N       2.53       5.49      21.43
N       5.48       3.22       0.61
N       5.49       2.53       6.22
N       4.72       6.97      14.43
N       4.70       7.66      20.04
N       8.32       9.81       7.52
N       7.63       9.79      13.13
N       1.87       0.38      21.34
N       2.57       0.40      26.96
O       7.56       7.76      16.12
O       2.64       2.44       2.30
O       7.53       2.46       9.21
O       2.66       7.73      23.04
O       7.73       2.66       4.61
O       2.46       7.53      18.44
O       7.76       7.56      11.52
O       2.44       2.64      25.35
