23

O      11.79       1.92      16.87
O      10.23       3.41      16.24
C       9.99       2.38      18.38
C      10.50       1.47      19.31
C       9.89       1.26      20.56
C       8.73       2.02      20.86
C       8.22       2.94      19.94
C       8.83       3.12      18.69
C      10.71       2.57      17.09
C      10.50      -0.83      23.67
C       9.94       0.11      22.82
C      10.44       0.28      21.51
C      11.52      -0.57      21.16
C      12.03      -1.49      22.06
H      11.41       0.95      19.02
H       8.22       1.89      21.81
H       7.34       3.52      20.19
H       8.42       3.81      17.96
H      10.13      -0.96      24.68
H       9.10       0.70      23.18
H      11.96      -0.54      20.16
H      12.83      -2.16      21.79
N      11.54      -1.62      23.32
