23

O      10.36       9.34      16.88
O       9.85       7.25      16.24
C      10.86       7.55      18.38
C      11.38       8.45      19.31
C      11.86       8.03      20.57
C      11.78       6.65      20.86
C      11.25       5.75      19.94
C      10.80       6.18      18.69
C      10.34       8.08      17.08
C      13.34       9.62      23.68
C      12.82       8.66      22.82
C      12.43       9.01      21.51
C      12.62      10.36      21.16
C      13.15      11.26      22.07
H      11.38       9.50      19.02
H      12.14       6.27      21.81
H      11.19       4.69      20.19
H      10.42       5.48      17.96
H      13.65       9.37      24.69
H      12.73       7.64      23.19
H      12.37      10.72      20.17
H      13.32      12.30      21.80
N      13.50      10.91      23.33
