23

N      13.34       4.74      16.15
O      16.49       6.32      22.60
O      17.00       8.41      23.24
H      15.47       6.16      20.46
H      14.70       9.38      17.66
H      15.65      10.97      19.29
H      16.43      10.18      21.52
C      15.98       8.11      21.10
C      15.47       7.20      20.16
H      14.48       4.93      19.31
H      13.20       6.29      14.78
C      15.06       9.00      18.62
C      16.04       9.47      20.79
C      16.51       7.57      22.39
C      13.50       6.04      15.80
C      14.02       6.99      16.65
H      14.11       8.02      16.29
C      14.98       7.62      18.91
C      14.42       6.65      17.97
H      13.52       3.35      17.68
C      15.59       9.91      19.54
C      14.23       5.29      18.32
C      13.70       4.39      17.41
