23

N      10.73       9.30      13.45
O      13.68      11.25       6.98
O      15.77      10.67       6.38
H      13.02      10.46       9.15
C      13.93       9.93       9.44
C      14.05       9.29      10.69
C      15.28       8.66      10.98
C      16.33       8.68      10.06
C      16.19       9.30       8.82
H      11.46      10.19      10.29
H      12.01       8.40      14.82
C      14.78      10.66       7.21
H      13.95       8.33      13.30
C      11.94       8.79      13.80
C      13.03       8.76      12.94
H       9.62      10.16      11.93
C      11.65       9.80      11.29
C      10.61       9.79      12.19
C      12.92       9.28      11.63
C      14.97       9.94       8.51
H      15.42       8.15      11.93
H      17.28       8.19      10.31
H      16.99       9.29       8.09
