23

O      20.77      13.75       6.98
O      19.23      12.23       6.38
C      18.99      13.27       8.51
C      19.51      14.18       9.44
C      18.89      14.39      10.69
C      17.74      13.64      10.98
H      20.41      14.71       9.15
C      17.84      12.53       8.83
C      19.71      13.08       7.21
H      17.43      11.84       8.10
C      17.23      12.71      10.07
H      16.34      12.14      10.32
H      17.22      13.77      11.93
C      19.45      15.38      11.64
C      18.94      15.55      12.95
C      20.52      16.23      11.29
H      18.10      14.96      13.31
C      19.51      16.48      13.80
H      20.96      16.20      10.29
C      21.03      17.14      12.19
H      21.84      17.82      11.92
H      19.13      16.62      14.82
N      20.55      17.27      13.45
