924

H      45.61      22.00      24.12
H      47.85      22.46      23.50
H      46.21      24.02      27.77
H      48.45      24.48      27.15
H      51.00      23.59      27.13
H      52.27      21.71      27.85
H      51.65      19.89      24.10
H      50.39      21.76      23.39
H      51.82      24.03      22.85
H      51.89      24.76      20.58
H      47.82      25.88      20.83
H      47.77      25.19      23.08
H      48.22      26.37      25.22
H      52.26      25.16      25.20
H      52.93      27.38      25.64
H      48.88      28.58      25.67
H      53.06      18.80      25.71
H      44.08      22.84      27.29
H      49.06      25.57      18.59
H      52.34      29.72      26.12
H      45.61      43.05      26.84
H      47.85      42.28      26.75
H      46.22      45.22      23.27
H      48.46      44.45      23.18
H      51.00      44.87      23.95
H      52.27      46.43      25.22
H      51.64      44.10      28.68
H      50.38      42.55      27.41
H      51.82      40.94      25.72
H      51.89      38.61      26.22
H      47.83      38.27      25.12
H      47.77      40.56      24.59
H      48.23      41.83      22.50
H      52.26      42.41      23.57
H      52.93      41.67      21.42
H      48.88      41.11      20.36
H      53.06      46.03      28.81
H      44.08      45.38      24.53
H      49.06      36.49      26.52
H      52.34      40.92      19.16
H      45.61      34.89       7.25
H      47.85      35.19       7.96
H      46.21      30.71       7.16
H      48.46      31.02       7.87
H      51.00      31.48       7.11
H      52.26      31.80       5.12
H      51.64      35.96       5.42
H      50.39      35.63       7.39
H      51.82      34.96       9.64
H      51.89      36.57      11.40
H      47.83      35.79      12.25
H      47.77      34.19      10.52
H      48.23      31.75      10.48
H      52.26      32.37       9.44
H      52.93      30.88      11.15
H      48.88      30.25      12.17
H      53.06      35.11       3.68
H      44.08      31.72       6.39
H      49.06      37.89      13.09
H      52.34      29.30      12.93
H      17.38      12.23      33.39
H      19.62      11.77      34.01
H      18.00      10.25      29.72
H      20.24       9.79      30.34
H      22.79      10.65      30.37
H      24.06      12.53      29.65
H      23.41      14.37      33.39
H      22.15      12.50      34.09
H      23.59      10.23      34.65
H      23.66       9.51      36.92
H      19.61       8.34      36.66
H      19.56       9.04      34.41
H      20.00       7.88      32.26
H      24.04       9.09      32.32
H      24.70       6.86      31.88
H      20.66       5.67      31.80
H      24.84      15.44      31.79
H      15.86      11.41      30.21
H      20.84       8.69      38.90
H      24.12       4.53      31.39
H      17.38      -8.79      30.66
H      19.62      -8.02      30.75
H      18.00     -10.98      34.21
H      20.24     -10.21      34.30
H      22.79     -10.62      33.55
H      24.05     -12.18      32.27
H      23.41      -9.86      28.81
H      22.15      -8.31      30.08
H      23.59      -6.70      31.77
H      23.66      -4.37      31.26
H      19.61      -4.02      32.39
H      19.56      -6.31      32.92
H      20.00      -7.59      35.00
H      24.04      -8.15      33.92
H      24.70      -7.42      36.07
H      20.66      -6.88      37.14
H      24.83     -11.79      28.68
H      15.86     -11.14      32.96
H      20.84      -2.24      30.98
H      24.12      -6.68      38.34
H      17.39      -0.64      50.25
H      19.63      -0.94      49.54
H      17.99       3.54      50.34
H      20.23       3.23      49.62
H      22.78       2.77      50.38
H      24.04       2.45      52.37
H      23.42      -1.71      52.07
H      22.17      -1.39      50.10
H      23.59      -0.72      47.85
H      23.66      -2.32      46.08
H      19.60      -1.54      45.25
H      19.54       0.06      46.98
H      20.00       2.50      47.02
H      24.04       1.87      48.06
H      24.70       3.37      46.35
H      20.66       4.00      45.32
H      24.84      -0.86      53.81
H      15.85       2.53      51.11
H      20.83      -3.63      44.40
H      24.12       4.95      44.56
H       7.43     -10.32      33.38
H       5.15      -9.96      33.93
H       6.91      -8.08      29.83
H       4.63      -7.74      30.39
H       2.12      -8.78      30.32
H       0.95     -10.71      29.54
H       1.45     -12.52      33.32
H       2.61     -10.61      34.09
H       1.18      -8.30      34.60
H       1.09      -7.58      36.87
H       5.18      -6.58      36.71
H       5.26      -7.26      34.46
H       4.76      -5.95      32.42
H       0.76      -7.25      32.20
H       0.07      -5.02      31.75
H       4.09      -3.74      31.97
H       0.66     -13.83      31.42
H       9.12      -8.90      30.42
H       3.89      -6.85      38.92
H       0.63      -2.66      31.36
H       7.42      10.65      30.70
H       5.15       9.99      30.74
H       6.91      12.59      34.42
H       4.63      11.93      34.45
H       2.12      12.52      33.56
H       0.96      14.16      32.29
H       1.44      11.79      28.83
H       2.60      10.17      30.10
H       1.18       8.58      31.85
H       1.09       6.25      31.34
H       5.19       5.89      32.27
H       5.27       8.17      32.81
H       4.76       9.28      34.97
H       0.76      10.14      33.96
H       0.07       9.41      36.11
H       4.09       8.57      37.11
H       0.66      14.09      28.65
H       9.12      12.50      33.41
H       3.89       4.11      30.94
H       0.63       8.57      38.35
H       7.43       2.48      50.20
H       5.15       2.77      49.61
H       6.91      -1.71      50.03
H       4.63      -1.40      49.45
H       2.12      -0.94      50.40
H       0.95      -0.65      52.45
H       1.45       3.52      52.13
H       2.61       3.23      50.09
H       1.18       2.52      47.84
H       1.09       4.13      46.08
H       5.18       3.50      45.29
H       5.27       1.89      47.00
H       4.76      -0.54      46.89
H       0.76      -0.09      48.13
H       0.07      -1.58      46.43
H       4.09      -2.03      45.21
H       0.66       2.54      54.22
H       9.12      -0.79      50.45
H       3.89       5.55      44.42
H       0.63      -3.11      44.58
H      35.65      44.56      24.11
H      33.38      44.20      23.56
H      35.13      42.33      27.66
H      32.85      41.99      27.11
H      30.34      43.03      27.17
H      29.17      44.95      27.95
H      29.68      46.77      24.18
H      30.84      44.86      23.41
H      29.41      42.55      22.90
H      29.31      41.84      20.62
H      33.40      40.82      20.78
H      33.49      41.50      23.03
H      32.99      40.19      25.08
H      28.98      41.49      25.29
H      28.29      39.27      25.73
H      32.31      37.99      25.53
H      28.89      48.08      26.07
H      37.34      43.16      27.08
H      32.11      41.11      18.57
H      28.85      36.91      26.13
H      35.65      23.60      26.79
H      33.37      24.26      26.75
H      35.13      21.65      23.08
H      32.86      22.30      23.05
H      30.34      21.73      23.93
H      29.18      20.09      25.21
H      29.68      22.45      28.66
H      30.84      24.07      27.39
H      29.40      25.67      25.65
H      29.31      27.99      26.17
H      33.40      28.36      25.22
H      33.49      26.08      24.68
H      32.99      24.95      22.52
H      28.98      24.12      23.53
H      28.29      24.85      21.39
H      32.31      25.67      20.38
H      28.89      20.15      28.85
H      37.34      21.75      24.09
H      32.11      30.14      26.56
H      28.85      25.69      19.15
H      35.65      31.77       7.32
H      33.38      31.47       7.91
H      35.13      35.95       7.44
H      32.85      35.65       8.02
H      30.32      35.18       7.11
H      29.16      34.90       5.05
H      29.69      30.73       5.35
H      30.85      31.02       7.39
H      29.41      31.71       9.64
H      29.31      30.10      11.39
H      33.39      30.76      12.22
H      33.48      32.38      10.51
H      32.99      34.81      10.59
H      28.98      34.32       9.38
H      28.29      35.81      11.09
H      32.31      36.30      12.28
H      28.89      31.71       3.28
H      37.34      35.04       7.04
H      32.11      28.70      13.06
H      28.85      37.34      12.92
H      52.46      26.39      16.85
H      48.93      29.51      15.73
H      47.86      27.99      17.79
H      52.40      26.69      13.90
H      52.47      34.57      26.67
H      48.93      32.04      24.53
H      47.86      34.58      24.82
H      52.41      31.87      27.88
H      52.46      38.98      14.68
H      48.92      38.39      17.94
H      47.86      37.37      15.60
H      52.40      41.38      16.41
H      24.24       7.86      40.64
H      20.70       4.74      41.76
H      19.63       6.26      39.71
H      24.18       7.56      43.59
H      24.24      -0.32      30.83
H      20.70       2.21      32.97
H      19.63      -0.33      32.68
H      24.18       2.38      29.61
H      24.24      -4.73      42.82
H      20.70      -4.14      39.55
H      19.63      -3.12      41.89
H      24.18      -7.14      41.08
H       0.49      -5.97      40.61
H       4.04      -2.87      41.75
H       5.12      -4.41      39.71
H       0.52      -5.67      43.55
H       0.49       2.21      30.86
H       4.04      -0.33      32.97
H       5.12       2.21      32.66
H       0.52      -0.49      29.65
H       0.49       6.56      42.82
H       4.04       6.01      39.56
H       5.12       5.01      41.92
H       0.51       8.96      41.09
H      28.71      40.22      16.89
H      32.27      37.13      15.74
H      33.34      38.67      17.78
H      28.74      39.91      13.95
H      28.71      32.04      26.63
H      32.27      34.58      24.52
H      33.34      32.04      24.84
H      28.74      34.73      27.84
H      28.71      27.69      14.68
H      32.27      28.24      17.93
H      33.34      29.24      15.57
H      28.74      25.29      16.41
H      39.39      21.76      27.29
H      41.86      23.92      23.72
H      39.10      25.04      23.79
H      42.20      20.62      27.18
H      39.39      45.93      25.46
H      41.86      41.75      25.38
H      39.10      41.25      24.37
H      42.20      46.40      26.50
H      39.40      32.26       5.45
H      41.86      34.27       9.11
H      39.10      33.65      10.04
H      42.20      32.92       4.52
H      11.17      12.49      30.20
H      13.63      10.32      33.78
H      10.87       9.20      33.70
H      13.97      13.63      30.31
H      11.17     -11.68      32.03
H      13.63      -7.50      32.12
H      10.87      -7.00      33.13
H      13.97     -12.15      30.99
H      11.17       1.99      52.05
H      13.64      -0.03      48.39
H      10.88       0.60      47.45
H      13.97       1.33      52.98
H      55.67      17.40      30.95
H      53.68      16.75      26.59
H      55.47      14.75      26.68
H      53.60      19.44      30.60
H      55.67     -13.49      27.41
H      53.68     -16.94      30.15
H      55.47     -15.86      31.84
H      53.60     -14.81      25.81
H      55.67      -1.11      55.93
H      53.68      35.37       1.45
H      55.47       3.91      55.76
H      53.60      30.55       1.79
H      27.45      16.84      26.55
H      25.45      17.50      30.90
H      27.25      19.50      30.81
H      25.38      14.80      26.89
H      27.45     -17.02      30.09
H      25.45     -13.58      27.34
H      27.25     -14.66      25.66
H      25.38     -15.70      31.68
H      27.45      35.36       1.57
H      25.46      -1.12      56.04
H      27.25      30.34       1.73
H      25.37       3.70      55.71
C      50.98      28.22      25.72
C      51.93      27.18      25.61
C      51.53      25.85      25.36
C      50.16      25.48      25.25
C      49.22      26.54      25.37
C      49.61      27.87      25.62
C      49.74      24.10      24.71
C      49.76      24.42      23.20
C      48.64      25.03      22.57
C      48.67      25.46      21.23
C      49.85      25.37      20.47
C      51.00      24.83      21.09
C      50.95      24.38      22.43
C      50.63      22.94      25.14
C      48.37      23.63      25.20
C      47.53      22.80      24.40
C      46.20      22.53      24.77
C      45.67      23.01      25.98
C      46.55      23.68      26.87
C      47.87      23.96      26.49
C      51.16      22.84      26.46
C      51.90      21.71      26.90
C      52.12      20.60      26.05
C      51.55      20.67      24.75
C      50.81      21.79      24.32
C      44.33      22.85      26.33
C      51.40      29.54      25.88
C      49.84      25.82      19.16
C      52.85      19.46      26.42
C      50.98      41.33      20.65
C      51.93      41.75      21.61
C      51.53      42.20      22.89
C      50.16      42.30      23.26
C      49.22      41.87      22.28
C      49.61      41.42      21.01
C      49.74      42.51      24.72
C      49.76      41.05      25.20
C      48.64      40.20      24.99
C      48.67      38.82      25.28
C      49.86      38.22      25.75
C      51.00      39.03      25.91
C      50.95      40.41      25.63
C      50.63      43.48      25.51
C      48.37      43.18      24.89
C      47.53      42.90      26.00
C      46.20      43.35      26.06
C      45.67      44.17      25.03
C      46.55      44.60      24.01
C      47.87      44.13      23.96
C      51.16      44.67      24.94
C      51.90      45.61      25.70
C      52.12      45.43      27.08
C      51.54      44.27      27.67
C      50.81      43.34      26.92
C      44.33      44.55      25.00
C      51.40      40.81      19.43
C      49.84      36.86      26.02
C      52.85      46.32      27.89
C      50.98      30.39      11.83
C      51.93      31.01      10.98
C      51.53      31.89       9.96
C      50.16      32.17       9.69
C      49.22      31.53      10.55
C      49.61      30.65      11.58
C      49.74      33.32       8.77
C      49.76      34.47       9.80
C      48.64      34.71      10.64
C      48.67      35.65      11.68
C      49.86      36.36      11.98
C      51.00      36.09      11.20
C      50.95      35.16      10.14
C      50.63      33.53       7.54
C      48.37      33.13       8.11
C      47.53      34.24       7.80
C      46.20      34.06       7.38
C      45.67      32.76       7.18
C      46.55      31.67       7.32
C      47.87      31.85       7.75
C      51.16      32.44       6.79
C      51.90      32.62       5.60
C      52.12      33.91       5.07
C      51.55      35.00       5.77
C      50.81      34.81       6.96
C      44.33      32.55       6.87
C      51.40      29.59      12.89
C      49.84      37.27      13.02
C      52.85      34.16       3.89
C      22.75       6.03      31.77
C      23.70       7.07      31.90
C      23.30       8.40      32.15
C      21.93       8.77      32.25
C      21.00       7.71      32.11
C      21.38       6.38      31.87
C      21.52      10.14      32.79
C      21.54       9.82      34.29
C      20.42       9.20      34.93
C      20.46       8.77      36.26
C      21.64       8.88      37.02
C      22.78       9.43      36.40
C      22.73       9.88      35.07
C      22.41      11.31      32.35
C      20.14      10.62      32.30
C      19.30      11.44      33.10
C      17.97      11.71      32.74
C      17.44      11.24      31.51
C      18.33      10.58      30.63
C      19.65      10.30      31.00
C      22.94      11.41      31.03
C      23.68      12.53      30.60
C      23.90      13.64      31.45
C      23.31      13.58      32.74
C      22.58      12.46      33.17
C      16.10      11.40      31.17
C      23.17       4.70      31.62
C      21.62       8.44      38.33
C      24.63      14.78      31.07
C      22.75      -7.09      36.84
C      23.70      -7.50      35.88
C      23.30      -7.95      34.60
C      21.93      -8.05      34.23
C      21.00      -7.63      35.22
C      21.39      -7.18      36.49
C      21.52      -8.27      32.77
C      21.54      -6.80      32.30
C      20.42      -5.95      32.52
C      20.45      -4.58      32.22
C      21.63      -3.97      31.75
C      22.78      -4.78      31.58
C      22.73      -6.16      31.86
C      22.41      -9.23      31.98
C      20.14      -8.93      32.61
C      19.30      -8.64      31.50
C      17.97      -9.10      31.44
C      17.44      -9.92      32.46
C      18.33     -10.36      33.47
C      19.65      -9.89      33.53
C      22.94     -10.42      32.55
C      23.68     -11.36      31.80
C      23.90     -11.18      30.41
C      23.31     -10.03      29.82
C      22.58      -9.10      30.58
C      16.10     -10.30      32.49
C      23.17      -6.56      38.07
C      21.62      -2.61      31.48
C      24.63     -12.07      29.61
C      22.75       3.86      45.67
C      23.70       3.24      46.51
C      23.30       2.36      47.54
C      21.93       2.08      47.80
C      21.00       2.72      46.94
C      21.39       3.59      45.92
C      21.51       0.93      48.72
C      21.53      -0.22      47.70
C      20.41      -0.47      46.86
C      20.44      -1.40      45.81
C      21.63      -2.11      45.51
C      22.78      -1.84      46.29
C      22.73      -0.91      47.35
C      22.41       0.72      49.95
C      20.14       1.12      49.38
C      19.31       0.01      49.70
C      17.97       0.19      50.12
C      17.44       1.48      50.31
C      18.32       2.58      50.18
C      19.65       2.40      49.74
C      22.93       1.81      50.70
C      23.67       1.63      51.89
C      23.90       0.34      52.43
C      23.32      -0.75      51.72
C      22.59      -0.56      50.53
C      16.10       1.70      50.63
C      23.17       4.66      44.60
C      21.61      -3.02      44.47
C      24.63       0.09      53.60
C       2.01      -4.15      31.79
C       1.07      -5.21      31.84
C       1.49      -6.54      32.09
C       2.85      -6.88      32.26
C       3.77      -5.79      32.22
C       3.37      -4.47      31.97
C       3.29      -8.26      32.78
C       3.26      -7.96      34.29
C       4.38      -7.40      34.96
C       4.34      -6.98      36.30
C       3.13      -7.04      37.03
C       1.98      -7.54      36.38
C       2.05      -7.99      35.04
C       2.42      -9.43      32.33
C       4.67      -8.70      32.28
C       5.49      -9.57      33.05
C       6.85      -9.78      32.73
C       7.42      -9.19      31.57
C       6.55      -8.50      30.70
C       5.20      -8.29      31.03
C       1.94      -9.54      30.99
C       1.25     -10.69      30.52
C       1.04     -11.81      31.36
C       1.55     -11.72      32.68
C       2.22     -10.58      33.14
C       8.79      -9.23      31.30
C       1.57      -2.83      31.62
C       3.13      -6.59      38.34
C       0.45     -13.00      30.92
C       2.01       8.93      36.85
C       1.07       9.43      35.90
C       1.49       9.87      34.63
C       2.85       9.89      34.24
C       3.77       9.38      35.20
C       3.37       8.94      36.48
C       3.29      10.13      32.79
C       3.26       8.68      32.29
C       4.39       7.82      32.44
C       4.34       6.45      32.14
C       3.13       5.84      31.72
C       1.98       6.66      31.61
C       2.05       8.04      31.90
C       2.42      11.11      32.00
C       4.67      10.78      32.66
C       5.49      10.56      31.52
C       6.85      10.94      31.50
C       7.42      11.65      32.59
C       6.55      12.05      33.63
C       5.20      11.65      33.64
C       1.95      12.33      32.58
C       1.26      13.30      31.82
C       1.04      13.14      30.43
C       1.54      11.95      29.84
C       2.22      10.98      30.60
C       8.79      11.90      32.68
C       1.57       8.42      38.07
C       3.13       4.48      31.46
C       0.45      14.12      29.62
C       2.01      -1.98      45.65
C       1.07      -1.41      46.54
C       1.49      -0.53      47.57
C       2.85      -0.21      47.78
C       3.77      -0.79      46.86
C       3.37      -1.67      45.84
C       3.29       0.93      48.71
C       3.26       2.09      47.70
C       4.38       2.39      46.88
C       4.33       3.33      45.85
C       3.13       4.00      45.54
C       1.98       3.69      46.30
C       2.05       2.75      47.35
C       2.42       1.12      49.96
C       4.67       0.72      49.34
C       5.50       1.82      49.71
C       6.85       1.64      50.05
C       7.42       0.35      50.13
C       6.55      -0.75      49.96
C       5.20      -0.57      49.61
C       1.94       0.02      50.72
C       1.26       0.18      51.94
C       1.04       1.47      52.50
C       1.55       2.57      51.76
C       2.22       2.40      50.54
C       8.79       0.14      50.30
C       1.57      -2.79      44.59
C       3.13       4.91      44.49
C       0.45       1.69      53.75
C      30.23      38.39      25.70
C      29.30      39.46      25.65
C      29.71      40.78      25.40
C      31.08      41.13      25.23
C      32.00      40.04      25.28
C      31.59      38.72      25.53
C      31.51      42.50      24.71
C      31.48      42.21      23.20
C      32.60      41.64      22.53
C      32.55      41.22      21.20
C      31.35      41.29      20.47
C      30.20      41.80      21.11
C      30.27      42.24      22.46
C      30.64      43.68      25.17
C      32.89      42.95      25.21
C      33.72      43.81      24.44
C      35.07      44.02      24.76
C      35.65      43.44      25.92
C      34.77      42.75      26.79
C      33.42      42.53      26.46
C      30.16      43.79      26.50
C      29.48      44.93      26.97
C      29.27      46.06      26.14
C      29.77      45.97      24.82
C      30.45      44.83      24.35
C      37.01      43.49      26.19
C      29.79      37.08      25.86
C      31.35      40.85      19.15
C      28.67      47.25      26.58
C      30.23      25.32      20.65
C      29.30      24.83      21.60
C      29.71      24.38      22.87
C      31.08      24.36      23.25
C      32.00      24.86      22.29
C      31.59      25.31      21.02
C      31.51      24.12      24.70
C      31.48      25.57      25.20
C      32.61      26.43      25.05
C      32.56      27.80      25.35
C      31.35      28.40      25.77
C      30.20      27.59      25.89
C      30.27      26.21      25.60
C      30.64      23.14      25.49
C      32.89      23.46      24.84
C      33.72      23.70      25.97
C      35.07      23.31      25.99
C      35.65      22.60      24.91
C      34.78      22.19      23.87
C      33.42      22.59      23.85
C      30.17      21.92      24.92
C      29.48      20.94      25.67
C      29.27      21.11      27.06
C      29.77      22.29      27.65
C      30.45      23.27      26.89
C      37.02      22.35      24.81
C      29.79      25.83      19.43
C      31.35      29.76      26.04
C      28.67      20.13      27.88
C      30.23      36.23      11.85
C      29.30      35.65      10.96
C      29.71      34.77       9.93
C      31.08      34.46       9.72
C      32.00      35.05      10.63
C      31.60      35.93      11.65
C      31.51      33.32       8.79
C      31.48      32.16       9.79
C      32.60      31.87      10.63
C      32.55      30.92      11.66
C      31.35      30.25      11.96
C      30.20      30.55      11.19
C      30.27      31.49      10.14
C      30.64      33.13       7.54
C      32.89      33.52       8.15
C      33.72      32.42       7.80
C      35.08      32.60       7.45
C      35.64      33.89       7.37
C      34.77      35.00       7.52
C      33.42      34.81       7.87
C      30.16      34.23       6.78
C      29.47      34.06       5.55
C      29.27      32.78       5.00
C      29.78      31.68       5.72
C      30.46      31.85       6.95
C      37.01      34.11       7.20
C      29.80      37.03      12.91
C      31.34      29.34      13.00
C      28.67      32.56       3.74
C      49.67      28.84      15.95
C      49.64      28.18      17.19
C      50.67      27.27      17.54
C      51.71      27.05      16.62
C      51.72      27.68      15.36
C      50.71      28.61      15.02
C      49.67      32.56      25.00
C      49.64      33.97      24.95
C      50.67      34.72      25.56
C      51.72      34.04      26.22
C      51.73      32.63      26.30
C      50.71      31.87      25.66
C      49.67      38.53      17.26
C      49.64      37.79      16.06
C      50.67      37.94      15.10
C      51.71      38.86      15.36
C      51.72      39.63      16.55
C      50.70      39.46      17.52
C      21.45       5.40      41.55
C      21.42       6.07      40.30
C      22.45       6.97      39.96
C      23.49       7.20      40.88
C      23.50       6.56      42.14
C      22.48       5.63      42.48
C      21.44       1.69      32.50
C      21.42       0.28      32.55
C      22.45      -0.47      31.93
C      23.49       0.21      31.27
C      23.50       1.62      31.20
C      22.48       2.38      31.83
C      21.44      -4.29      40.24
C      21.42      -3.54      41.43
C      22.44      -3.70      42.39
C      23.49      -4.61      42.13
C      23.50      -5.38      40.95
C      22.48      -5.21      39.97
C       3.29      -3.53      41.53
C       3.33      -4.20      40.29
C       2.30      -5.11      39.94
C       1.24      -5.32      40.85
C       1.23      -4.68      42.11
C       2.25      -3.76      42.45
C       3.29       0.19      32.51
C       3.33       1.60      32.55
C       2.30       2.36      31.94
C       1.25       1.68      31.30
C       1.23       0.26      31.23
C       2.25      -0.50      31.85
C       3.29       6.15      40.25
C       3.33       5.40      41.45
C       2.30       5.55      42.40
C       1.24       6.45      42.14
C       1.22       7.22      40.95
C       2.25       7.05      39.98
C      31.52      37.79      15.96
C      31.56      38.45      17.21
C      30.52      39.35      17.56
C      29.47      39.57      16.65
C      29.45      38.92      15.39
C      30.48      38.00      15.04
C      31.52      34.05      24.99
C      31.55      32.64      24.94
C      30.52      31.89      25.55
C      29.47      32.57      26.19
C      29.45      33.98      26.26
C      30.47      34.74      25.64
C      31.52      28.10      17.24
C      31.55      28.85      16.05
C      30.52      28.70      15.09
C      29.46      27.80      15.36
C      29.45      27.03      16.55
C      30.47      27.20      17.52
C      41.35      23.45      24.47
C      39.94      23.49      24.46
C      39.21      22.85      25.49
C      39.91      22.21      26.53
C      41.32      22.16      26.53
C      42.06      22.81      25.51
C      41.35      42.64      25.41
C      39.94      42.61      25.38
C      39.21      43.82      25.41
C      39.91      45.04      25.45
C      41.32      45.07      25.49
C      42.06      43.86      25.44
C      41.35      33.86       8.32
C      39.94      33.84       8.36
C      39.21      33.27       7.29
C      39.91      32.69       6.22
C      41.32      32.71       6.18
C      42.06      33.27       7.25
C      13.13      10.79      33.02
C      11.72      10.75      33.03
C      10.98      11.39      32.00
C      11.69      12.04      30.96
C      13.10      12.08      30.96
C      13.84      11.43      31.98
C      13.13      -8.39      32.09
C      11.72      -8.36      32.12
C      10.99      -9.57      32.08
C      11.69     -10.80      32.05
C      13.10     -10.82      32.01
C      13.84      -9.61      32.06
C      13.13       0.39      49.17
C      11.72       0.41      49.14
C      10.99       0.98      50.20
C      11.69       1.56      51.28
C      13.10       1.54      51.32
C      13.84       0.98      50.25
C      54.12      16.92      27.49
C      54.85      15.86      28.09
C      55.44      16.02      29.37
C      55.27      17.26      30.02
C      54.55      18.32      29.42
C      53.98      18.17      28.13
C      54.12     -16.24      29.56
C      54.85     -15.19      30.18
C      55.44     -14.17      29.40
C      55.27     -14.22      28.00
C      54.55     -15.27      27.38
C      53.98      48.44      28.15
C      54.12      34.50       1.15
C      54.85       2.14      56.02
C      55.44       0.95      55.52
C      55.27      32.15       0.19
C      54.55      32.14       1.40
C      53.98      33.32       1.92
C      25.90      17.33      30.00
C      26.63      18.39      29.40
C      27.22      18.23      28.13
C      27.05      16.99      27.48
C      26.33      15.93      28.08
C      25.76      16.07      29.37
C      25.90     -14.28      27.94
C      26.63     -15.32      27.32
C      27.22      48.41      28.10
C      27.05     -16.29      29.50
C      26.33     -15.24      30.12
C      25.76     -14.20      29.35
C      25.90      32.12       0.26
C      26.63      32.11       1.47
C      27.22      33.30       1.97
C      27.05      34.48       1.22
C      26.32      34.49       0.01
C      25.75       0.92      55.57
N      50.62      29.29      13.87
N      50.70      26.67      18.73
N      50.62      30.54      25.64
N      50.70      36.05      25.49
N      50.61      40.11      18.68
N      50.70      37.22      13.98
N      22.39       4.96      43.62
N      22.47       7.58      38.77
N      22.39       3.71      31.85
N      22.47      -1.80      32.00
N      22.39      -5.86      38.81
N      22.47      -2.97      43.51
N       2.33      -3.07      43.59
N       2.28      -5.71      38.75
N       2.34      -1.83      31.87
N       2.28       3.69      32.01
N       2.33       7.70      38.82
N       2.28       4.83      43.52
N      30.56      37.32      13.90
N      30.51      39.96      18.74
N      30.56      36.07      25.62
N      30.51      30.56      25.48
N      30.56      26.55      18.68
N      30.50      29.42      13.97
N      43.39      22.87      25.44
N      37.88      22.94      25.56
N      43.39      43.77      25.43
N      37.88      43.83      25.31
N      43.39      33.31       7.33
N      37.88      33.17       7.34
N      15.17      11.38      32.06
N       9.66      11.31      31.94
N      15.17      -9.52      32.06
N       9.66      -9.58      32.19
N      15.17       0.94      50.17
N       9.66       1.08      50.16
N      53.28      19.21      27.61
N      56.10      15.04      30.03
N      53.28      47.48      27.51
N      56.10     -13.10      29.91
N      53.28      33.26       3.08
N      56.10       0.86      54.34
N      25.06      15.04      29.88
N      27.88      19.20      27.46
N      25.06     -13.23      29.98
N      27.87      47.35      27.59
N      25.06       0.99      54.42
N      27.87      33.39       3.15
O      48.66      28.48      18.08
O      52.74      27.39      14.51
O      48.65      34.59      24.25
O      52.75      32.04      26.97
O      48.66      36.87      15.87
O      52.74      40.51      16.71
O      20.43       5.77      39.41
O      24.52       6.86      42.99
O      20.43      -0.34      33.25
O      24.52       2.21      30.52
O      20.43      -2.62      41.62
O      24.52      -6.27      40.78
O       4.33      -3.91      39.41
O       0.19      -4.96      42.95
O       4.33       2.22      33.24
O       0.20      -0.32      30.56
O       4.33       4.50      41.64
O       0.19       8.08      40.77
O      32.56      38.17      18.09
O      28.42      39.20      14.55
O      32.55      32.02      24.26
O      28.42      34.57      26.92
O      32.55      29.75      15.85
O      28.42      26.17      16.73
O      39.30      24.14      23.45
O      41.93      21.49      27.55
O      39.31      41.41      25.32
O      41.93      46.28      25.56
O      39.30      34.39       9.43
O      41.93      32.16       5.09
O      11.08      10.10      34.04
O      13.71      12.75      29.95
O      11.08      -7.16      32.18
O      13.71     -12.03      31.93
O      11.08      -0.15      48.07
O      13.71       2.08      52.41
O      54.87      14.65      27.46
O      54.44      19.49      30.09
O      54.87     -15.14      31.54
O      54.44      49.48      26.02
O      54.87       3.29      55.29
O      54.44      30.96       2.08
O      26.65      19.60      30.04
O      26.22      14.75      27.40
O      26.65      49.38      25.96
O      26.22     -15.24      31.47
O      26.65      30.96       2.20
O      26.22       3.29      55.41
