66

Eu       3.45       6.17       1.71
C       8.60       3.45      -7.55
Eu       5.06       5.65      -6.56
C       7.24       4.09      -7.54
Eu       1.30       6.56       9.51
Eu       2.29       5.98       5.53
Eu       4.07       5.07      -2.58
Eu       6.22       5.45     -10.38
C       5.64       8.23      -8.45
C       4.18       6.60       7.66
C      -1.11       7.03      11.69
C       3.64      10.32       0.57
C       3.51       8.93       0.96
O       2.71       8.16       0.36
O       4.19       8.46       1.93
C       5.98       5.87      -0.56
C      -0.67       6.85       2.57
O       4.15       6.90      -4.74
O       5.30       7.12      -2.88
C       0.45       6.32       3.36
O       7.13       5.94      -5.26
O       5.77       4.54      -4.22
O       2.75       4.23      -0.85
O       1.52       5.47       0.50
C      -0.36       7.54       6.91
O       2.08       5.27      11.90
O       3.28       6.78      10.86
O       4.38       4.83      -8.86
O       2.96       6.14      -7.83
O       3.44       4.09      -5.89
O       2.30       4.52      -4.00
C       4.74       7.63      -3.85
C       5.83       8.18       4.54
O       7.06       5.23      -8.10
O       5.56       7.46      -9.45
C       4.47       7.53       4.56
O       6.31       3.55      -6.85
O       5.62       7.86      -7.28
O       4.86       6.36      -0.19
C       2.87       3.39       3.64
O       1.61       6.79       3.24
O       0.19       5.49       4.26
O       0.67       7.53       6.20
O      -0.47       7.10       8.10
O       6.05       4.85      -1.24
O       4.29       6.39       3.99
O       3.54       8.07       5.24
O       2.79       4.16       2.65
O       2.85       3.76       4.82
C       6.95       5.03      -4.44
C       1.67       4.59      -0.40
O       5.48       3.46     -11.74
O       6.96       3.16     -10.16
C       6.41       1.30     -11.53
C       6.28       2.70     -11.13
O       1.38       4.72       7.36
O       2.53       4.50       9.22
O       4.35       5.68       6.83
O       3.00       7.08       7.87
O      -0.02       7.39      11.25
C       3.21       5.75      11.54
O      -1.25       6.15      12.59
C       2.10       4.77      -9.53
C       3.22       5.30      -8.73
C       2.41       4.08      -5.19
C       1.97       3.99       8.25
