16

H      12.89       7.76       1.59
H      11.80       5.54       1.84
H      12.45       5.66       6.08
H      13.53       7.91       5.86
C      13.28       7.97       3.71
C      12.79       7.31       2.57
C      12.17       6.07       2.71
O      10.89       3.69       3.02
C      12.06       5.47       3.98
C      12.54       6.15       5.11
C      13.93       9.28       3.49
C      11.52       4.08       4.08
O      14.35       9.56       2.30
O      14.06      10.18       4.40
C      13.14       7.40       4.98
O      11.73       3.38       5.10
