28

Gd       6.08       1.55      15.86
Gd       9.70       7.97      18.97
C       9.06      10.66      20.98
C       6.80       6.59      18.72
C       5.79       3.61      18.32
C       9.32       5.17      16.56
C       2.19      -2.86      16.46
C       3.90      -0.94      16.80
C       5.42       4.21      13.81
C       8.71       4.00      16.10
C       5.71      -1.25      18.21
C       5.11      -2.42      18.69
C       6.99       4.25      17.63
C       9.13       0.15      16.05
C       3.38      -2.19      17.15
C       7.52       5.50      17.98
N       8.73       5.90      17.53
N       4.00      -2.91      18.11
N       7.60       3.51      16.68
N       5.10      -0.53      17.25
O       7.51       7.39      19.40
O       7.89       0.25      16.23
O       3.88       1.00      15.44
O       9.50       9.57      20.42
O       5.34       2.55      17.69
O       1.72      -3.89      17.14
O       5.86       3.11      14.37
O       5.57       6.76      18.48
