13

C       0.54       3.36      10.84
C       1.08       2.57      11.97
C       2.23       1.84      14.01
C       2.95       1.75      15.28
C       1.06       1.22      12.11
C       1.73       0.79      13.28
O       3.20       2.77      15.97
O       0.53       4.60      10.94
O       3.34       0.61      15.68
O       0.14       2.74       9.83
S       1.88       3.35      13.27
H       0.66       0.65      11.51
H       1.81      -0.10      13.52
