104

C       5.93      -2.36      11.76
C       4.96      -1.29      11.38
C       4.45      -1.27      10.09
C       3.49      -0.31       9.75
C       3.09       0.62      10.68
C       3.61       0.63      11.99
C       4.54      -0.36      12.33
C       3.58       1.63      14.27
C       2.95       0.57      15.15
C       3.70       5.68       0.07
C       1.58       0.31      15.09
C       2.88      -0.32       8.37
C       1.23       4.51      12.25
C       0.27       3.44      12.63
C      -0.25       3.42      13.92
C      -1.20       2.47      14.26
C      -1.60       1.53      13.33
C      -1.08       1.52      12.02
C      -0.16       2.51      11.68
C      -1.11       0.53       9.74
C      -1.74       1.59       8.86
C      -0.99       2.29       7.93
C       6.28       1.85       8.92
C      -1.81       2.47      15.64
C      -1.23       7.42       4.24
C      -0.27       6.35       4.63
C       0.25       6.33       5.92
C       1.20       5.37       6.26
C       1.60       4.44       5.33
C       1.08       4.43       4.02
C       0.16       5.42       3.68
C       1.11       3.43       1.74
C       1.74       4.50       0.86
C       0.99      -0.62      15.93
C       3.11       4.75       0.92
C       1.81       5.38       7.63
C       3.46       0.55       3.76
C       4.43       1.62       3.37
C       4.94       1.64       2.08
C       5.90       2.59       1.75
C       6.30       3.53       2.67
C       5.78       3.54       3.98
C       4.85       2.55       4.33
C       5.80       4.53       6.27
C       6.43       3.47       7.14
C       5.69       2.77       8.08
C      -1.58       3.21       7.08
C       6.51       2.59       0.37
H       4.74      -1.89       9.46
H       2.46       1.27      10.43
H       4.88      -0.39      13.20
H       3.36       2.50      14.63
H       4.55       1.53      14.32
H       4.62       5.83       0.13
H       1.06       0.76      14.47
H       2.69       2.22      12.58
H       0.05       4.04      14.55
H      -2.23       0.89      13.58
H       0.18       2.54      10.81
H       8.05      -0.34       9.38
H      -0.15       0.62       9.69
H      -0.08       2.14       7.87
H       5.76       1.39       9.54
H       7.38      -0.07      11.43
H      -0.05       6.95       6.55
H       2.23       3.79       5.57
H      -0.18       5.45       2.81
H       1.34       2.56       1.37
H       0.15       3.53       1.68
H       0.08      -0.77      15.87
H       3.63       4.30       1.54
H       2.01       2.84       3.43
H       4.65       1.02       1.45
H       6.93       4.17       2.43
H       4.51       2.52       5.19
H      -3.36       5.40       6.63
H       4.84       4.44       6.32
H       4.77       2.92       8.14
H      -1.06       3.67       6.47
H      -2.69       5.13       4.58
N       3.20       1.60      12.87
N      -1.49       0.55      11.14
N       1.49       3.46       3.13
N       6.19       4.51       4.87
O       6.22      -2.44      12.98
O       6.40      -3.07      10.88
O       3.31      -1.22       7.59
O       2.02       0.49       8.06
O       1.53       4.59      11.03
O       1.71       5.23      13.13
O      -1.39       9.19       0.42
O      -2.68       1.66      15.95
O      -1.53       7.50       3.03
O      -1.71       8.13       5.12
O       1.39       6.28       8.42
O       2.68       4.57       7.95
O       3.16       0.47       4.97
O       2.98      -0.17       2.88
O       6.08      -4.13      15.59
O       7.37       3.40       0.05
Zn       7.02      -3.94      13.91
Zn       2.33       6.09      10.10
Zn      -2.33       9.00       2.09
Zn       2.37      -1.03       5.91
