780

H      33.56      18.89      42.48
H      32.04      21.32      27.70
H      33.51      18.83       5.37
H      34.36      17.03      44.00
H      33.15      19.71      29.27
H      10.93      18.90      29.22
H      11.76      18.88      31.46
H      14.33      16.73      27.93
H      15.18      16.74      30.18
H      13.10      15.13      31.40
H      12.23      13.54      33.17
H      13.29      17.04      34.99
H      14.07      18.56      36.64
H      14.75      20.26      31.36
H      15.60      21.86      33.15
H      14.87      23.15      36.87
H      16.22      25.13      37.10
H      18.03      21.21      34.86
H      19.36      23.19      35.03
H      16.51      21.28      38.47
H      15.59      19.73      40.24
H      11.23      14.02      38.48
H      12.10      15.61      40.26
H      15.35      17.02      41.39
H      15.00      17.72      43.66
H      11.75      18.93      40.26
H      11.38      19.59      42.52
H       9.75      13.84      34.87
H       8.92      11.59      34.66
H      12.42      10.14      36.53
H      13.27      12.36      36.70
H      32.69      19.00      31.49
H      29.62      17.79      27.92
H      29.19      17.03      30.16
H      28.74      19.61      31.41
H      27.81      21.16      33.18
H      30.39      18.55      34.98
H      31.29      17.09      36.63
H      32.47      15.72      31.36
H      33.44      14.18      33.14
H      34.85      14.12      36.92
H      35.90      11.97      37.14
H      31.67      12.34      34.78
H      32.74      10.22      34.95
H      32.40      13.60      38.45
H      31.50      15.17      40.22
H      28.84      21.84      38.47
H      29.78      20.28      40.25
H      29.32      16.76      41.40
H      30.12      16.72      43.66
H      32.79      18.89      40.23
H      29.37      23.16      34.80
H      27.86      25.03      34.59
H      24.88      22.81      36.60
H      26.35      20.95      36.77
H      44.88      38.39      29.26
H      22.35       0.76      31.48
H      22.88       4.03      27.93
H      22.44       4.78      30.17
H      24.89       3.83      31.41
H      26.70       3.85      33.18
H      23.14       2.98      35.00
H      21.43       2.91      36.63
H      19.63       2.64      31.36
H      17.81       2.55      33.15
H      17.06       1.28      36.88
H      14.67       1.46      37.11
H      17.14       4.98      34.84
H      14.76       5.13      35.02
H      17.85       3.63      38.47
H      19.65       3.62      40.24
H      26.78       2.69      38.48
H      24.96       2.65      40.27
H      22.12       4.78      41.39
H      21.70       4.13      43.66
H      22.27       0.70      40.27
H      21.89       0.06      42.53
H      27.67       1.53      34.85
H      30.04       1.93      34.64
H      29.56       5.65      36.57
H      27.22       5.28      36.74
H      11.47      19.57       5.39
H      54.96      19.60       7.62
H      52.39      21.75       4.09
H      51.53      21.73       6.34
H      53.63      23.35       7.55
H      54.49      24.93       9.32
H      53.40      21.45      11.15
H      52.59      19.95      12.79
H      51.97      18.22       7.52
H      51.11      16.62       9.31
H      51.84      15.34      13.03
H      50.49      13.35      13.26
H      48.66      17.26      11.01
H      47.35      15.28      11.19
H      50.20      17.19      14.63
H      51.10      18.76      16.39
H      55.43      24.49      14.64
H      54.55      22.90      16.43
H      51.32      21.47      17.55
H      51.68      20.76      19.82
H      54.94      19.59      16.41
H      11.00      18.93      18.66
H      56.95      24.65      11.06
H      57.79      26.90      10.85
H      54.26      28.36      12.65
H      53.42      26.14      12.83
H      33.95      19.53       7.60
H      37.10      20.69       4.08
H      37.51      21.44       6.32
H      37.87      18.82       7.54
H      38.81      17.28       9.31
H      36.31      19.95      11.14
H      35.38      21.38      12.78
H      34.25      22.81       7.51
H      33.28      24.35       9.29
H      31.81      24.37      13.02
H      30.77      26.54      13.24
H      35.07      26.14      10.99
H      34.01      28.27      11.16
H      34.25      24.86      14.61
H      35.14      23.28      16.38
H      37.90      16.65      14.62
H      36.95      18.21      16.41
H      37.37      21.72      17.53
H      36.59      21.77      19.80
H      33.91      19.56      16.40
H      33.16      19.56      18.67
H      37.32      15.28      11.02
H      38.85      13.43      10.81
H      41.86      15.74      12.67
H      40.35      17.58      12.84
H      21.78       0.10       5.43
H      44.32      37.72       7.66
H      43.83      34.46       4.09
H      44.27      33.71       6.33
H      41.81      34.61       7.58
H      40.01      34.58       9.35
H      43.56      35.51      11.15
H      45.27      35.56      12.80
H      47.06      35.89       7.53
H      48.87      35.96       9.32
H      49.62      37.16      13.08
H      52.02      37.00      13.31
H      49.57      33.51      10.96
H      51.94      33.38      11.13
H      48.85      34.79      14.62
H      47.04      34.79      16.39
H      39.93      35.82      14.63
H      41.75      35.85      16.42
H      44.56      33.69      17.56
H      44.99      34.36      19.83
H      44.45      37.76      16.40
H      22.67       0.05      18.66
H      39.06      36.93      10.96
H      36.69      36.56      10.74
H      37.10      32.88      12.76
H      39.45      33.22      12.94
H      12.60      18.10       0.05
H      13.23      17.36      45.59
H      54.03      19.78       0.09
H      53.00      20.00       2.23
H      56.63      21.38       3.86
H      12.61      21.22      44.02
H      14.02      21.90       0.79
H      14.39      20.29       1.40
H      14.22      22.70       2.91
H      55.93      22.79      47.22
H      56.90      23.13      45.79
H      54.66      23.61      45.49
H      31.69      18.59       0.03
H      30.70      18.44      45.57
H      34.58      20.25       0.08
H      35.28      21.03       2.21
H      34.66      17.19       3.84
H      34.27      15.46       0.78
H      32.69      15.94       1.39
H      34.86      14.89       2.90
H      36.21      17.14      47.20
H      36.02      16.12      45.78
H      37.56      17.81      45.47
H      22.55       1.84       0.06
H      22.90       2.79      45.59
H      44.72      36.89       0.12
H      45.03      35.88       2.26
H      41.99      38.32       3.87
H      19.86       0.31      44.04
H      18.55       1.16       0.80
H      19.75       2.29       1.42
H      17.75       0.93       2.91
H      41.18      37.05      47.25
H      40.39      37.72      45.82
H      41.09      35.53      45.52
H      54.10      20.36      23.91
H      53.46      21.13      21.75
H      12.68      18.69      23.93
H      13.71      18.47      26.07
H      10.09      17.08      27.70
H      54.09      17.28      20.16
H      52.69      16.55      24.64
H      52.32      18.17      25.25
H      52.50      15.76      26.76
H      10.79      15.71      23.36
H       9.82      15.37      21.93
H      12.06      14.89      21.62
H      35.05      19.90      23.90
H      36.03      20.06      21.73
H      32.17      18.23      23.96
H      31.45      17.47      26.09
H      32.36      21.45      20.17
H      32.46      23.03      24.63
H      34.04      22.55      25.25
H      31.86      23.61      26.74
H      30.52      21.37      23.38
H      30.71      22.38      21.95
H      29.16      20.68      21.65
H      44.14      36.65      23.90
H      43.79      35.72      21.74
H      21.99       1.61      23.95
H      21.68       2.62      26.09
H      24.70       0.17      27.71
H      46.84      38.18      20.18
H      48.15      37.33      24.64
H      46.94      36.20      25.26
H      48.94      37.56      26.76
H      25.52       1.46      23.38
H      26.31       0.78      21.96
H      25.61       2.97      21.65
H      11.96       6.68      34.25
H      11.83       9.01      33.97
H      10.47       4.18      34.42
H      12.36       2.77      34.53
H      13.64       4.67      38.03
H       8.64       9.19      36.72
H      10.81       6.77      38.59
H      12.11       7.47      37.63
H      12.36       5.83      39.94
H       8.75       5.95      37.89
H       7.59       7.24      37.57
H       6.86       5.19      36.81
H      22.12      24.87      34.24
H      24.20      23.83      33.97
H      20.67      27.40      34.41
H      18.50      26.46      34.53
H      19.54      24.40      38.02
H      25.93      26.52      36.72
H      22.77      25.82      38.57
H      22.72      24.34      37.60
H      21.18      24.93      39.92
H      23.05      28.02      37.88
H      24.75      28.39      37.57
H      23.34      30.04      36.82
H      32.76       7.00      34.24
H      30.81       5.72      33.98
H      35.67       6.97      34.40
H      35.95       9.31      34.50
H      33.68       9.48      38.01
H      32.27       2.88      36.72
H      33.27       5.98      38.58
H      32.02       6.75      37.62
H      33.32       7.80      39.93
H      35.02       4.61      37.89
H      34.48       2.95      37.57
H      36.62       3.35      36.81
H      54.76      31.81      10.39
H      54.88      29.49      10.12
H      56.24      34.32      10.58
H      54.34      35.73      10.69
H      53.05      33.79      14.17
H      58.05      29.30      12.88
H      55.88      31.70      14.73
H      54.59      31.01      13.76
H      54.32      32.63      16.08
H      57.94      32.54      14.05
H      59.10      31.24      13.73
H      59.85      33.29      12.99
H      44.62      13.61      10.40
H      42.54      14.67      10.12
H      46.04      11.08      10.57
H      48.21      12.01      10.69
H      47.18      14.06      14.19
H      40.78      11.99      12.85
H      43.95      12.65      14.74
H      44.00      14.13      13.78
H      45.54      13.53      16.09
H      43.64      10.46      14.03
H      41.94      10.11      13.70
H      43.35       8.45      12.95
H      33.95      31.51      10.38
H      35.89      32.80      10.12
H      31.03      31.52      10.55
H      30.76      29.17      10.67
H      33.06      29.04      14.16
H      34.42      35.63      12.88
H      33.45      32.54      14.72
H      34.70      31.76      13.75
H      33.42      30.72      16.07
H      31.68      33.89      14.03
H      32.21      35.54      13.72
H      30.07      35.14      12.97
C      34.22      17.33       1.78
C      32.55      20.24      24.57
C      34.41      17.46      46.07
C      32.50      21.16      25.65
C      13.08      15.34      32.40
C      12.60      14.47      33.36
C      12.67      15.12      34.60
C      13.47      16.52      33.03
C      13.92      17.70      32.37
C      14.44      18.85      33.00
C      15.20      20.25      34.56
C      15.27      20.91      33.33
C      14.81      20.04      32.36
C      15.59      20.77      35.81
C      15.40      20.08      37.04
C      14.61      18.67      38.60
C      15.41      19.62      39.23
C      15.91      20.48      38.27
C      13.83      17.68      39.26
C      13.13      16.63      38.63
C      12.37      15.23      37.07
C      11.85      14.81      38.30
C      12.31      15.68      39.27
C      12.18      14.60      35.82
C      11.58      13.30      35.82
C      12.33      12.21      36.31
C      11.83      10.91      36.20
C      10.58      10.66      35.59
C       9.81      11.75      35.14
C      10.31      13.06      35.25
C      13.57      17.90      40.63
C      14.49      17.53      41.63
C      14.29      17.94      42.96
C      13.17      18.73      43.30
C      12.21      19.04      42.30
C      12.42      18.64      40.97
C      16.32      22.01      35.83
C      15.80      23.17      36.45
C      16.59      24.33      36.57
C      17.89      24.36      36.04
C      18.39      23.21      35.38
C      17.62      22.05      35.29
C      13.55      17.82      31.01
C      12.32      18.45      30.72
C      14.30      17.23      29.97
C      13.80      17.21      28.66
C      12.54      17.80      28.37
C      11.83      18.45      29.41
C      28.93      19.52      32.41
C      28.42      20.36      33.38
C      28.99      20.00      34.60
C      29.79      18.61      33.04
C      30.61      17.66      32.37
C      31.37      16.64      32.99
C      32.20      15.28      34.55
C      32.76      14.92      33.32
C      32.24      15.76      32.36
C      32.45      14.67      35.80
C      31.93      15.17      37.02
C      31.11      16.56      38.59
C      31.51      15.37      39.22
C      32.00      14.52      38.25
C      30.64      17.72      39.25
C      30.10      18.87      38.63
C      29.27      20.23      37.07
C      29.20      20.90      38.30
C      29.71      20.06      39.26
C      28.81      20.71      35.82
C      28.01      21.89      35.82
C      26.70      21.82      36.35
C      25.83      22.92      36.25
C      26.24      24.10      35.59
C      27.56      24.19      35.10
C      28.44      23.09      35.21
C      30.98      17.84      40.62
C      30.20      17.24      41.63
C      30.67      17.21      42.95
C      31.92      17.79      43.28
C      32.66      18.44      42.27
C      32.20      18.46      40.95
C      33.17      13.44      35.81
C      34.42      13.31      36.47
C      35.04      12.05      36.59
C      34.45      10.90      36.01
C      33.23      11.04      35.32
C      32.59      12.29      35.23
C      30.90      17.94      31.02
C      32.05      18.72      30.74
C      30.03      17.58      29.97
C      30.29      18.02      28.66
C      31.42      18.84      28.39
C      32.31      19.15      29.44
C      24.72       3.70      32.41
C      25.70       3.72      33.38
C      25.11       3.43      34.61
C      23.50       3.43      33.04
C      22.26       3.22      32.37
C      21.00       3.08      33.00
C      19.40       3.03      34.55
C      18.80       2.76      33.32
C      19.79       2.79      32.36
C      18.75       3.11      35.81
C      19.45       3.28      37.04
C      21.06       3.30      38.60
C      19.83       3.51      39.24
C      18.84       3.52      38.27
C      22.30       3.13      39.26
C      23.57       3.04      38.64
C      25.16       3.09      37.08
C      25.78       2.84      38.31
C      24.79       2.81      39.27
C      25.81       3.24      35.83
C      27.23       3.37      35.83
C      27.80       4.55      36.34
C      29.18       4.76      36.24
C      30.02       3.82      35.60
C      29.46       2.61      35.13
C      28.07       2.39      35.24
C      22.25       2.80      40.64
C      22.11       3.78      41.63
C      21.86       3.40      42.96
C      21.74       2.04      43.31
C      21.95       1.06      42.31
C      22.19       1.43      40.98
C      17.32       3.11      35.82
C      16.58       2.08      36.45
C      15.18       2.17      36.58
C      14.49       3.28      36.04
C      15.23       4.29      35.37
C      16.63       4.21      35.28
C      22.34       2.83      31.02
C      22.43       1.45      30.74
C      22.47       3.77      29.98
C      22.73       3.33      28.67
C      22.86       1.95      28.39
C      22.67       1.02      29.43
C      53.64      23.14       8.55
C      54.11      24.01       9.52
C      54.03      23.36      10.75
C      53.24      21.96       9.19
C      52.80      20.78       8.53
C      52.27      19.63       9.15
C      51.50      18.23      10.71
C      51.43      17.57       9.48
C      51.90      18.44       8.52
C      51.10      17.71      11.97
C      51.30      18.40      13.19
C      52.07      19.82      14.76
C      51.28      18.86      15.39
C      50.79      18.00      14.43
C      52.84      20.82      15.42
C      53.54      21.88      14.79
C      54.30      23.27      13.23
C      54.82      23.69      14.46
C      54.35      22.83      15.43
C      54.52      23.89      11.98
C      55.11      25.19      11.97
C      54.36      26.28      12.45
C      54.86      27.59      12.34
C      56.11      27.83      11.74
C      56.89      26.74      11.31
C      56.40      25.42      11.42
C      53.10      20.60      16.79
C      52.18      20.97      17.79
C      52.39      20.55      19.12
C      53.52      19.77      19.45
C      54.47      19.47      18.45
C      54.26      19.87      17.13
C      50.39      16.48      11.98
C      50.91      15.32      12.61
C      50.12      14.15      12.73
C      48.82      14.11      12.20
C      48.32      15.26      11.54
C      49.08      16.43      11.44
C      53.16      20.66       7.17
C      54.39      20.03       6.88
C      52.41      21.25       6.13
C      52.92      21.26       4.82
C      54.17      20.68       4.53
C      54.89      20.03       5.57
C      37.68      18.91       8.54
C      38.19      18.07       9.51
C      37.66      18.45      10.74
C      36.85      19.84       9.17
C      36.05      20.81       8.51
C      35.31      21.85       9.14
C      34.48      23.21      10.70
C      33.95      23.60       9.47
C      34.46      22.76       8.50
C      34.23      23.81      11.95
C      34.73      23.29      13.18
C      35.56      21.91      14.74
C      35.14      23.08      15.38
C      34.65      23.94      14.41
C      36.02      20.74      15.40
C      36.58      19.60      14.78
C      37.42      18.25      13.22
C      37.52      17.59      14.44
C      37.00      18.42      15.41
C      37.87      17.76      11.96
C      38.69      16.60      11.96
C      40.01      16.70      12.45
C      40.89      15.62      12.35
C      40.49      14.41      11.73
C      39.15      14.28      11.28
C      38.26      15.37      11.40
C      35.71      20.62      16.77
C      36.50      21.24      17.77
C      36.04      21.27      19.10
C      34.79      20.69      19.44
C      34.05      20.02      18.45
C      34.50      20.00      17.12
C      33.52      25.05      11.97
C      32.26      25.18      12.59
C      31.65      26.45      12.72
C      32.27      27.59      12.18
C      33.52      27.45      11.52
C      34.14      26.20      11.42
C      35.76      20.56       7.15
C      34.61      19.81       6.86
C      36.65      20.91       6.12
C      36.41      20.47       4.80
C      35.28      19.68       4.51
C      34.36      19.38       5.55
C      41.99      34.73       8.58
C      41.00      34.71       9.54
C      41.60      35.03      10.77
C      43.20      35.02       9.20
C      44.44      35.26       8.54
C      45.70      35.40       9.16
C      47.29      35.45      10.72
C      47.89      35.75       9.49
C      46.90      35.72       8.53
C      47.95      35.36      11.97
C      47.25      35.16      13.19
C      45.64      35.14      14.76
C      46.86      34.90      15.39
C      47.85      34.90      14.43
C      44.39      35.32      15.42
C      43.13      35.42      14.79
C      41.54      35.38      13.24
C      40.92      35.66      14.46
C      41.91      35.68      15.42
C      40.89      35.23      11.99
C      39.47      35.12      11.98
C      38.88      33.96      12.52
C      37.50      33.75      12.41
C      36.67      34.70      11.75
C      37.25      35.88      11.25
C      38.64      36.09      11.37
C      44.46      35.67      16.79
C      44.59      34.69      17.80
C      44.84      35.08      19.12
C      44.97      36.45      19.45
C      44.77      37.42      18.44
C      44.53      37.04      17.12
C      49.38      35.36      11.98
C      50.11      36.38      12.64
C      51.51      36.29      12.76
C      52.21      35.20      12.19
C      51.47      34.21      11.50
C      50.08      34.28      11.41
C      44.34      35.65       7.18
C      44.25      37.03       6.91
C      44.23      34.71       6.14
C      43.97      35.16       4.83
C      43.83      36.54       4.55
C      44.00      37.47       5.60
C      12.98      19.23      44.61
C      12.63      20.58      44.82
C      12.23      21.06      46.08
C      12.22      20.14      47.17
C      12.64      18.81      46.98
C      13.02      18.35      45.71
C      55.96      20.43       0.71
C      54.59      20.15       0.87
C      53.98      20.29       2.12
C      54.73      20.72       3.23
C      56.09      21.07       3.05
C      12.42      20.93       1.80
C      56.11      22.48      46.19
C      13.88      21.22       1.64
C      32.44      17.72      44.59
C      33.79      17.35      44.80
C      33.62      17.93      47.15
C      32.25      18.24      46.96
C      31.67      18.13      45.69
C      34.18      18.25       0.70
C      34.62      19.58       0.85
C      35.05      20.04       2.10
C      35.04      19.17       3.22
C      34.66      17.82       3.03
C      35.86      17.13      46.17
C      33.75      15.92       1.62
C      21.41       1.63      44.62
C      20.41       0.65      44.83
C      20.20       0.07      46.10
C      21.00       0.53      47.18
C      21.95       1.56      46.99
C      22.15       2.11      45.72
C      43.17      38.22       0.73
C      44.11      37.18       0.90
C      44.28      36.58       2.15
C      43.52      37.01       3.25
C      42.54      38.01       3.06
C      20.19       0.26       1.81
C      41.35      37.36      46.21
C      19.20       1.37       1.65
C      53.72      19.27      20.76
C      54.08      17.92      20.96
C      10.17      17.44      22.23
C      54.49      18.35      23.31
C      54.06      19.69      23.13
C      53.68      20.14      21.87
C      10.75      18.03      24.56
C      12.13      18.31      24.71
C      12.74      18.17      25.96
C      11.98      17.75      27.07
C      10.63      17.39      26.89
C      54.29      17.53      25.64
C      10.61      16.02      22.32
C      52.84      17.23      25.49
C      34.28      20.77      20.76
C      32.93      21.14      20.97
C      32.32      21.04      22.24
C      33.11      20.57      23.32
C      34.48      20.27      23.13
C      35.06      20.37      21.86
C      32.12      18.91      24.73
C      31.68      18.46      25.98
C      31.67      19.33      27.09
C      32.05      20.68      26.90
C      30.87      21.37      22.34
C      32.97      22.57      25.48
C      45.29      36.87      20.76
C      46.29      37.85      20.98
C      24.34       0.06      22.24
C      45.69      37.99      23.32
C      44.74      36.96      23.14
C      44.55      36.40      21.87
C      23.52       0.27      24.57
C      22.59       1.31      24.73
C      22.42       1.92      25.98
C      23.17       1.48      27.09
C      24.15       0.48      26.90
C      46.50      38.23      25.65
C      25.35       1.15      22.35
C      47.49      37.11      25.49
C      10.23       9.31      35.33
C       9.27       8.64      36.13
C       9.30       7.22      36.27
C      10.35       6.50      35.63
C      11.17       7.16      34.69
C      11.10       8.55      34.53
C      10.91       5.30      36.17
C      11.03       4.21      35.27
C      12.16       3.37      35.33
C      13.13       3.55      36.34
C      12.89       4.49      37.36
C      11.80       5.40      37.28
C       8.27       6.53      37.10
C      11.81       6.59      38.20
C      25.25      25.08      35.33
C      25.14      26.24      36.13
C      23.90      26.92      36.26
C      22.75      26.37      35.62
C      22.93      25.32      34.68
C      24.17      24.70      34.51
C      21.43      26.47      36.15
C      20.42      26.89      35.26
C      19.13      26.34      35.33
C      18.81      25.40      36.33
C      19.75      25.15      37.35
C      21.08      25.64      37.27
C      23.80      28.15      37.09
C      22.11      25.04      38.18
C      31.36       4.19      35.34
C      32.43       3.70      36.14
C      33.63       4.43      36.27
C      33.73       5.70      35.62
C      32.74       6.08      34.69
C      31.58       5.32      34.53
C      34.49       6.79      36.16
C      35.37       7.44      35.26
C      35.53       8.84      35.31
C      34.89       9.59      36.32
C      34.20       8.91      37.34
C      33.96       7.52      37.27
C      34.75       3.90      37.09
C      32.93       6.93      38.19
C      56.48      29.18      11.48
C      57.43      29.85      12.29
C      57.40      31.26      12.42
C      56.36      31.99      11.78
C      55.54      31.33      10.83
C      55.61      29.94      10.67
C      55.80      33.19      12.32
C      55.66      34.28      11.43
C      54.54      35.12      11.49
C      53.56      34.93      12.49
C      53.81      33.98      13.51
C      54.89      33.08      13.43
C      58.42      31.96      13.26
C      54.88      31.88      14.34
C      41.48      13.43      11.48
C      41.58      12.27      12.27
C      42.81      11.58      12.41
C      43.97      12.12      11.78
C      43.81      13.17      10.83
C      42.57      13.80      10.67
C      45.28      12.01      12.32
C      46.30      11.58      11.43
C      47.59      12.14      11.49
C      47.91      13.07      12.49
C      46.97      13.32      13.51
C      45.64      12.84      13.44
C      42.90      10.34      13.24
C      44.61      13.43      14.35
C      35.33      34.34      11.48
C      34.27      34.81      12.28
C      33.06      34.07      12.41
C      32.97      32.81      11.77
C      33.96      32.44      10.83
C      35.12      33.20      10.67
C      32.22      31.71      12.30
C      31.35      31.05      11.40
C      31.18      29.65      11.47
C      31.83      28.91      12.47
C      32.52      29.60      13.49
C      32.76      30.99      13.41
C      31.94      34.60      13.24
C      33.80      31.58      14.33
N      13.23      16.34      34.35
N      14.71      19.02      34.31
N      14.66      18.97      37.28
N      13.14      16.31      37.32
N      29.76      18.92      34.35
N      31.36      16.31      34.30
N      31.35      16.37      37.27
N      29.80      19.01      37.32
N      23.78       3.31      34.36
N      20.71       3.23      34.31
N      20.78       3.19      37.28
N      23.84       3.22      37.33
N      53.47      22.15      10.50
N      51.99      19.46      10.46
N      52.03      19.52      13.44
N      53.54      22.19      13.48
N      36.89      19.54      10.49
N      35.30      22.16      10.45
N      35.33      22.10      13.42
N      36.87      19.45      13.47
N      42.92      35.15      10.52
N      45.98      35.23      10.47
N      45.92      35.25      13.44
N      42.86      35.24      13.49
O      14.55      21.78       2.78
O      54.91      22.66      45.43
O      33.90      15.06       2.76
O      36.61      18.07      45.41
O      18.38       1.68       2.78
O      41.79      36.22      45.46
O      52.17      16.67      26.63
O      11.81      15.84      21.57
O      32.82      23.44      26.61
O      30.11      20.42      21.59
O      48.31      36.81      26.63
O      24.91       2.28      21.59
O      12.69       6.54      39.33
O       7.52       5.65      36.25
O      21.63      24.30      39.31
O      23.41      29.24      36.25
O      32.54       7.73      39.33
O      35.89       3.69      36.25
O      54.00      31.93      15.47
O      59.18      32.83      12.42
O      45.09      14.17      15.49
O      43.28       9.25      12.39
O      34.19      30.79      15.46
O      30.81      34.81      12.40
