32

H       3.20       0.98      11.73
H       4.05       0.39       4.76
H       4.62      -1.92       4.38
H       2.64       3.29      12.11
H       2.88       4.11       7.91
H       4.37      -2.73       8.58
C       3.46       2.54       6.00
C       3.79      -1.16      10.49
C       2.95       3.40       8.72
C       4.30      -2.02       7.77
C       2.72       3.86      10.03
C       4.54      -2.49       6.46
C       2.81       2.96      11.09
C       4.44      -1.59       5.40
C       3.13       1.63      10.87
C       4.12      -0.25       5.62
C       3.38       1.14       9.56
C       3.88       0.23       6.93
C       3.28       2.05       8.47
C       3.97      -0.67       8.02
C       3.72      -0.21       9.34
C       3.53       1.59       7.15
N       2.39       5.25      10.26
N       4.86      -3.87       6.22
O       4.63       2.99       5.55
O       2.62      -1.61      10.94
O       2.24       2.83       5.55
O       5.01      -1.46      10.94
O       2.13       5.67      11.47
O       2.37       6.10       9.28
O       5.13      -4.29       5.02
O       4.89      -4.73       7.21
