32

H       6.79       8.71      13.00
H       7.72       9.27      19.97
H       8.31      11.58      20.35
H       6.20       6.40      12.63
H       6.48       5.58      16.83
H       8.03      12.40      16.15
C       7.09       7.14      18.73
C       7.42      10.84      14.25
C       6.55       6.29      16.02
C       7.96      11.69      16.96
C       6.29       5.83      14.71
C       8.22      12.15      18.26
C       6.38       6.73      13.65
C       8.13      11.25      19.33
C       6.73       8.06      13.87
C       7.78       9.92      19.11
C       6.99       8.54      15.17
C       7.52       9.44      17.81
C       6.89       7.64      16.27
C       7.62      10.34      16.71
C       7.35       9.89      15.39
C       7.16       8.09      17.59
N       5.95       4.45      14.48
N       8.56      13.53      18.50
O       8.26       6.69      19.18
O       6.25      11.29      13.79
O       5.87       6.85      19.19
O       8.64      11.13      13.79
O       5.65       4.04      13.28
O       5.95       3.59      15.45
O       8.86      13.94      19.70
O       8.56      14.39      17.53
