10

O       1.17       5.78       5.25
O       3.43       6.02       5.51
O      -0.39      10.39       5.20
O       1.88      10.63       5.45
H       2.95       8.50       5.86
H       0.18       7.95       4.61
C       2.24       6.51       5.39
C       0.81       9.91       5.25
C       2.11       7.93       5.46
C       0.98       8.50       5.07
