22

O      -2.70       4.12      15.15
O      -2.93       1.94      14.98
H      -2.54       2.51       8.24
H      -3.15       6.49       8.41
H      -3.22       6.41      10.70
H      -2.96       5.12      12.83
H      -2.36       1.13      12.66
H      -2.28       1.21      10.37
C      -2.65       3.22      10.16
C      -2.66       3.29       8.75
C      -2.83       4.49       8.11
C      -3.03       5.67       8.85
C      -3.06       5.62      10.22
C      -2.75       4.57       6.62
C      -2.86       4.41      10.91
C      -2.85       4.34      12.32
C      -2.67       3.14      12.96
C      -2.47       1.96      12.22
C      -2.44       2.00      10.85
C      -2.75       3.05      14.45
O      -2.80       3.51       5.92
O      -2.57       5.68       6.09
