22

H       5.79       6.23       1.65
H       4.27       2.52       1.96
H       2.89       2.90       0.15
H       2.07       4.42      -1.65
H       3.60       8.13      -1.96
H       4.98       7.75      -0.15
C       4.37       5.83       0.22
C       5.21       5.56       1.34
C       5.17       4.35       1.97
C       4.29       3.35       1.52
C       3.47       3.57       0.44
C       6.10       4.08       3.13
C       3.49       4.82      -0.22
C       2.66       5.09      -1.34
C       2.70       6.30      -1.97
C       3.57       7.30      -1.52
C       4.39       7.07      -0.44
C       1.77       6.57      -3.13
O       5.96       2.99       3.74
O       6.93       4.97       3.40
O       1.90       7.66      -3.74
O       0.94       5.67      -3.40
