22

O      -0.21       7.49      16.46
O       1.80       8.35      16.63
H       1.38       7.81      23.37
H      -2.61       7.22      23.20
H      -2.56       7.31      20.90
H      -1.24       7.45      18.77
H       2.74       8.03      18.94
H       2.69       7.94      21.24
C       0.67       7.70      21.45
C       0.59       7.69      22.86
C      -0.60       7.51      23.49
C      -1.79       7.35      22.75
C      -1.76       7.39      21.39
C      -0.66       7.40      24.98
C      -0.53       7.55      20.70
C      -0.46       7.56      19.28
C       0.73       7.75      18.65
C       1.92       7.90      19.39
C       1.89       7.86      20.75
C       0.79       7.85      17.16
O       0.34       7.76      25.68
O      -1.67       6.90      25.52
