22

O      -2.98       6.24      17.20
O      -3.66       4.44      18.33
H      -6.22      10.09      21.71
H      -6.83       6.97      24.17
H      -5.82       5.55      22.68
H      -4.79       5.16      20.43
H      -4.17       8.28      17.97
H      -5.19       9.70      19.47
C      -5.56       8.31      20.92
C      -6.16       9.17      21.89
C      -6.65       8.68      23.06
C      -6.51       7.31      23.35
C      -5.91       6.46      22.46
C      -7.40       9.58      24.02
C      -5.45       6.94      21.22
C      -4.85       6.08      20.26
C      -4.36       6.57      19.08
C      -4.50       7.94      18.79
C      -5.09       8.79      19.68
C      -3.61       5.67      18.12
O      -8.02       9.01      24.94
O      -7.35      10.81      23.81
