17

Mo       0.51       3.54      10.33
N       3.33       1.85       9.83
N       0.40       6.73      11.19
N       2.61       5.50       8.72
N      -2.02       4.43       8.41
N      -2.07       4.03      12.39
N       2.39       3.42      13.05
N      -0.29       0.51      11.35
N       0.33       1.87       7.51
C       2.34       2.45      10.02
C       0.43       5.60      10.87
C       1.83       4.79       9.24
C      -1.13       4.13       9.11
C      -1.16       3.78      11.68
C       1.67       3.52      12.12
C      -0.06       1.59      10.95
C       0.38       2.49       8.50
