13

Mn       7.79       8.58      12.13
C       7.71       7.47      15.08
N       7.77       6.73      11.19
N       7.79      10.48      11.35
N      10.09       8.57      12.01
N       5.50       8.59      11.94
C       7.80       5.60      10.87
C       8.03      11.55      10.95
C       4.80       9.73      12.04
C      10.78       9.72      12.09
N       7.76       8.08      14.08
C       4.80       7.43      11.90
C      10.79       7.43      11.92
