30

H       8.42       4.81       7.54
H       8.43       6.09       3.41
H      10.31       6.12       7.54
H      10.32       4.80       3.42
H       4.71       5.45       5.47
H      14.02       5.47       5.48
C       5.78       4.84       7.91
C       7.91       5.11       6.63
C       6.51       5.13       6.64
C       5.79       6.06       3.03
C       7.91       5.79       4.32
C       6.51       5.77       4.31
C      12.95       6.10       7.91
C      10.83       5.81       6.63
C      12.23       5.80       6.64
C      12.96       4.84       3.05
C      10.83       5.11       4.33
C      12.23       5.14       4.32
C       8.63       5.45       5.48
C       5.80       5.45       5.47
C      10.11       5.46       5.48
C      12.94       5.47       5.48
O       6.43       4.28       8.85
O       4.56       5.21       7.99
O       6.45       6.60       2.09
O       4.56       5.73       2.96
O      12.29       6.65       8.86
O      14.18       5.77       7.99
O      12.31       4.27       2.10
O      14.18       5.19       2.98
