30

H       5.30       2.07       0.66
H       5.31      -2.03      -0.68
H       7.20       2.06      -0.69
H       7.19      -2.03       0.69
H       1.59       0.00      -0.00
H      10.91       0.01       0.01
C       2.65       2.43       0.65
C       4.79       1.17       0.35
C       3.38       1.17       0.34
C       2.66      -2.41      -0.67
C       4.79      -1.13      -0.37
C       3.39      -1.15      -0.35
C       9.85       2.43      -0.66
C       7.72       1.16      -0.37
C       9.12       1.17      -0.35
C       9.84      -2.40       0.69
C       7.71      -1.13       0.37
C       9.11      -1.14       0.35
C       5.51       0.02      -0.01
C       2.68       0.01      -0.00
C       6.99       0.02      -0.01
C       9.82       0.01       0.00
O       3.29       3.38       1.21
O       1.42       2.50       0.30
O       3.33      -3.35      -1.22
O       1.43      -2.48      -0.34
O       9.20       3.38      -1.21
O      11.08       2.49      -0.33
O       9.17      -3.35       1.23
O      11.09      -2.47       0.40
