14

O       7.18       3.82       2.56
O       7.54       5.78       1.56
H       7.65       3.93       5.08
C       7.35       5.75       3.94
C       7.37       5.07       2.60
C       7.49       5.01       5.12
C       7.40       5.63       6.35
C       7.11       7.13       4.04
H       6.97       7.74       3.15
C       7.00       7.72       5.29
H       7.48       5.12       7.30
O       7.01       7.52       7.61
H       6.80       8.77       5.46
N       7.15       6.97       6.43
