14

C       9.36      10.61       6.27
C       9.34      11.29       4.94
C       9.48      10.54       3.76
C       9.39      11.15       2.53
C       8.99      13.25       3.58
C       9.10      12.66       4.83
H       8.96      13.28       5.71
H       9.48      10.64       1.58
N       9.13      12.49       2.45
O       9.52      11.31       7.32
H       9.65       9.46       3.80
O       9.17       9.35       6.31
H       8.79      14.30       3.40
O       8.99      13.05       1.26
