632

H      25.58      10.00      12.87
H      27.38       8.90      11.78
H      25.94      13.24      10.20
H      27.73      12.13       9.10
H       1.64      11.89       8.76
H       3.46      12.96       9.84
H       3.11      10.29      13.08
H       1.30       9.21      11.99
H       2.24       7.83       9.84
H       2.21       5.46       9.90
H      26.76       5.49       9.32
H      26.78       7.86       9.27
H      26.76      10.00       7.72
H       2.20       9.39       7.72
H       2.21       9.46       5.34
H      26.76      10.08       5.36
H      25.58      45.24      42.06
H      27.38      46.34      43.16
H      25.93      42.01      44.74
H      27.72      43.11      45.84
H       1.62      43.35      46.18
H       3.44      42.27      45.10
H       3.10      44.95      41.86
H       1.29      46.03      42.95
H       2.23      47.41      45.10
H       2.20      49.78      45.05
H      26.75      49.75      45.61
H      26.77      47.38      45.66
H      26.74      45.25      47.22
H       2.19      45.84      47.23
H       2.19      45.78      49.60
H      26.75      45.17      49.58
H      25.60      42.21       9.85
H      27.39      43.30       8.76
H      25.94      44.89      13.08
H      27.72      46.00      11.98
H       1.63      46.32      11.75
H       3.45      45.24      12.82
H       3.12      42.01      10.14
H       1.31      43.10       9.05
H       2.24      45.26       7.68
H       2.22      45.21       5.32
H      26.77      45.76       5.33
H      26.79      45.80       7.71
H      26.76      47.37       9.83
H       2.21      47.37       9.25
H       2.21      49.75       9.32
H      26.76      49.73       9.91
H      25.59      13.03      45.08
H      27.38      11.93      46.18
H      25.93      10.34      41.86
H      27.72       9.24      42.96
H       1.62       8.91      43.19
H       3.44       9.99      42.12
H       3.11      13.23      44.80
H       1.30      12.14      45.89
H       2.23       9.98      47.26
H       2.20      10.04      49.63
H      26.75       9.49      49.60
H      26.78       9.44      47.23
H      26.75       7.87      45.11
H       2.20       7.87      45.69
H       2.20       5.49      45.63
H      26.75       5.51      45.03
H      11.33      37.46      40.27
H      13.14      36.37      39.21
H      11.41      40.47      37.33
H      13.22      39.37      36.25
H      15.84      39.33      36.28
H      17.63      40.41      37.39
H      17.58      37.43      40.37
H      15.77      36.36      39.26
H      16.58      35.14      36.93
H      16.54      32.77      36.94
H      12.34      32.82      36.84
H      12.37      35.20      36.83
H      12.41      37.06      35.04
H      16.63      36.97      35.09
H      16.66      37.03      32.71
H      12.44      37.12      32.67
H      11.36      17.76      14.65
H      13.17      18.86      15.72
H      11.41      14.78      17.62
H      13.22      15.88      18.70
H      15.83      15.90      18.65
H      17.62      14.82      17.54
H      17.61      17.82      14.58
H      15.80      18.90      15.69
H      16.59      20.10      18.03
H      16.55      22.47      18.03
H      12.34      22.41      18.08
H      12.37      20.04      18.09
H      12.42      18.21      19.90
H      16.64      18.24      19.86
H      16.66      18.19      22.23
H      12.45      18.14      22.27
H      11.34      14.81      37.32
H      13.15      15.88      36.22
H      11.41      17.77      40.32
H      13.22      18.84      39.22
H      15.83      18.81      39.19
H      17.63      17.70      40.27
H      17.59      14.73      37.28
H      15.78      15.84      36.20
H      16.58      18.17      34.99
H      16.55      18.16      32.62
H      12.34      18.24      32.68
H      12.37      18.25      35.05
H      12.41      20.05      36.90
H      16.63      20.01      36.83
H      16.65      22.38      36.89
H      12.44      22.42      36.96
H      11.35      40.43      17.62
H      13.16      39.36      18.72
H      11.42      37.47      14.62
H      13.23      36.40      15.72
H      15.85      36.43      15.76
H      17.64      37.54      14.68
H      17.60      40.52      17.66
H      15.79      39.40      18.74
H      16.59      37.08      19.95
H      16.55      37.08      22.32
H      12.34      36.99      22.26
H      12.38      36.98      19.89
H      12.42      35.19      18.04
H      16.64      35.23      18.11
H      16.66      32.86      18.06
H      12.45      32.82      17.97
H       2.35       0.75      10.33
H      26.60      53.48       7.15
H      26.05       0.48       7.02
H      24.90      53.87       7.42
H      27.10      52.01       9.72
H       1.80       3.17      10.05
H       2.34      54.49      44.61
H      26.59       1.76      47.79
H      26.04       0.08      47.92
H      24.89       1.38      47.52
H      27.09       3.23      45.22
H       1.79      52.07      44.89
H       2.36      44.76       0.60
H      26.57      47.94      53.32
H      26.04      48.07       0.32
H      24.87      47.66      53.70
H      27.08      45.37      51.86
H       1.81      45.04       3.02
H       2.34      10.48      54.34
H      26.60       7.29       1.56
H      26.03       7.19      54.55
H      24.90       7.56       1.17
H      27.10       9.84       3.08
H       1.79      10.20      51.93
H      16.48      28.11      38.11
H      10.06      26.78      35.62
H      10.68      28.21      36.48
H      10.92      26.59      37.15
H      12.92      24.63      36.28
H      16.04      30.52      37.61
H      16.50      27.13      16.84
H      10.07      28.46      19.31
H      10.69      27.03      18.46
H      10.94      28.65      17.78
H      12.93      30.61      18.66
H      16.05      24.72      17.35
H      16.49      16.99      27.96
H      10.07      19.46      26.63
H      10.68      18.60      28.06
H      10.93      17.93      26.43
H      12.93      18.82      24.48
H      16.05      17.49      30.37
H      16.49      38.24      26.98
H      10.06      35.77      28.30
H      10.68      36.61      26.86
H      10.91      37.31      28.47
H      12.92      36.43      30.46
H      16.05      37.75      24.57
H      21.96      15.26      11.81
H      20.53      10.93      17.13
H      21.12      10.57      15.50
H      19.68      11.58      15.73
H      19.75      14.48      16.56
H      23.84      13.75      11.20
H      21.94      39.99      43.13
H      20.53      44.30      37.79
H      21.12      44.67      39.43
H      19.68      43.65      39.20
H      19.75      40.75      38.37
H      23.83      41.50      43.75
H      21.95      43.28      15.10
H      20.54      37.93      10.80
H      21.13      39.56      10.42
H      19.69      39.34      11.44
H      19.75      38.52      14.34
H      23.84      43.90      13.59
H      21.93      11.95      39.84
H      20.55      17.28      44.17
H      21.15      15.65      44.52
H      19.70      15.88      43.52
H      19.73      16.71      40.62
H      23.83      11.34      41.34
H       6.78      39.72      12.11
H       7.27      42.13      17.39
H       6.19      43.42      16.81
H       7.67      43.82      17.71
H       9.81      41.34      16.16
H       4.98      41.29      11.37
H       6.76      15.52      42.83
H       7.26      13.10      37.56
H       6.18      11.81      38.13
H       7.66      11.42      37.23
H       9.80      13.90      38.78
H       4.97      13.95      43.57
H       6.77      12.26      15.37
H       7.27      17.53      12.96
H       6.19      16.96      11.67
H       7.67      17.86      11.27
H       9.81      16.30      13.75
H       4.98      11.52      13.80
H       6.77      42.99      39.57
H       7.26      37.69      41.99
H       6.19      38.27      43.28
H       7.67      37.38      43.67
H       9.81      38.94      41.19
H       4.97      43.72      41.14
C       0.13       9.80       5.11
C       1.32       9.60       5.83
C       1.32       9.57       7.24
C       0.13       9.79       8.00
C      27.66       9.93       7.25
C      27.66       9.96       5.84
C       0.14       9.65       9.53
C       0.14       8.13       9.66
C      27.67       7.38       9.45
C      27.65       5.97       9.46
C       0.11       5.23       9.65
C       1.32       5.96       9.80
C       1.33       7.36       9.79
C       1.33      10.35      10.20
C      27.69      10.34      10.24
C      27.07       9.79      11.39
C      26.01      10.45      12.06
C      25.54      11.70      11.62
C      26.21      12.30      10.52
C      27.27      11.65       9.87
C       1.95      11.51       9.65
C       3.02      12.16      10.29
C       3.49      11.72      11.55
C       2.83      10.63      12.15
C       1.76       9.98      11.51
C       0.12      45.44      49.83
C       1.31      45.64      49.11
C       1.31      45.66      47.70
C       0.12      45.45      46.94
C      27.65      45.31      47.69
C      27.64      45.29      49.10
C       0.13      45.58      45.41
C       0.13      47.11      45.28
C      27.66      47.86      45.49
C      27.64      49.27      45.47
C       0.10      50.00      45.29
C       1.31      49.28      45.14
C       1.32      47.88      45.16
C       1.32      44.89      44.74
C      27.68      44.90      44.70
C      27.06      45.45      43.54
C      26.00      44.79      42.88
C      25.53      43.54      43.32
C      26.20      42.94      44.42
C      27.26      43.59      45.07
C       1.94      43.73      45.29
C       3.01      43.08      44.65
C       3.48      43.52      43.39
C       2.82      44.61      42.79
C       1.75      45.26      43.44
C       0.13      49.98       9.65
C       1.33      49.25       9.46
C       1.32      47.85       9.43
C       0.14      47.09       9.64
C      27.66      47.84       9.77
C      27.66      49.25       9.80
C       0.14      45.56       9.51
C       0.14      45.43       7.98
C      27.67      45.63       7.23
C      27.66      45.62       5.82
C       0.12      45.44       5.09
C       1.33      45.29       5.81
C       1.33      45.31       7.21
C       1.33      44.89      10.20
C      27.69      44.85      10.19
C      27.08      43.69       9.65
C      26.02      43.03      10.30
C      25.55      43.47      11.55
C      26.21      44.57      12.15
C      27.27      45.22      11.49
C       1.95      45.43      11.36
C       3.02      44.79      12.01
C       3.49      43.54      11.57
C       2.83      42.93      10.47
C       1.76      43.58       9.83
C       0.12       5.26      45.29
C       1.32       5.98      45.48
C       1.31       7.39      45.51
C       0.13       8.15      45.30
C      27.65       7.40      45.17
C      27.65       5.99      45.14
C       0.13       9.68      45.44
C       0.13       9.81      46.96
C      27.66       9.61      47.71
C      27.64       9.62      49.12
C       0.11       9.81      49.85
C       1.31       9.95      49.13
C       1.32       9.93      47.73
C       1.32      10.35      44.74
C      27.68      10.39      44.75
C      27.07      11.55      45.29
C      26.01      12.21      44.64
C      25.54      11.76      43.39
C      26.20      10.67      42.79
C      27.26      10.02      43.44
C       1.94       9.80      43.58
C       3.01      10.45      42.93
C       3.49      11.70      43.37
C       2.82      12.30      44.47
C       1.75      11.66      45.11
C      14.56      37.09      32.45
C      15.75      37.06      33.19
C      15.73      37.04      34.60
C      14.52      37.11      35.34
C      13.32      37.09      34.57
C      13.34      37.10      33.17
C      14.50      36.98      36.87
C      14.48      35.45      37.00
C      13.26      34.71      36.91
C      13.24      33.30      36.90
C      14.43      32.56      36.95
C      15.65      33.27      36.97
C      15.67      34.68      36.97
C      15.68      37.65      37.57
C      13.32      37.68      37.55
C      12.77      37.21      38.77
C      11.71      37.87      39.42
C      11.17      39.07      38.89
C      11.75      39.59      37.72
C      12.82      38.93      37.08
C      16.21      38.89      37.11
C      17.28      39.53      37.78
C      17.83      39.00      38.96
C      17.24      37.83      39.49
C      16.18      37.19      38.82
C      14.56      18.15      22.49
C      15.76      18.16      21.75
C      15.74      18.18      20.34
C      14.53      18.13      19.60
C      13.33      18.16      20.37
C      13.34      18.15      21.77
C      14.51      18.26      18.07
C      14.48      19.79      17.95
C      13.27      20.53      18.02
C      13.25      21.93      18.03
C      14.44      22.68      17.99
C      15.66      21.97      17.99
C      15.68      20.56      17.98
C      15.69      17.59      17.37
C      13.33      17.55      17.39
C      12.79      18.02      16.16
C      11.73      17.36      15.52
C      11.18      16.17      16.05
C      11.76      15.65      17.22
C      12.82      16.31      17.86
C      16.22      16.35      17.82
C      17.28      15.70      17.16
C      17.84      16.24      15.98
C      17.26      17.42      15.46
C      16.19      18.06      16.12
C      14.55      22.64      36.94
C      15.75      21.90      36.92
C      15.73      20.49      36.90
C      14.52      19.75      36.96
C      13.32      20.51      36.94
C      13.33      21.92      36.95
C      14.50      18.22      36.83
C      14.48      18.09      35.30
C      13.26      18.18      34.56
C      13.24      18.19      33.16
C      14.44      18.14      32.41
C      15.66      18.13      33.12
C      15.67      18.12      34.53
C      15.68      17.52      37.51
C      13.32      17.54      37.54
C      12.78      16.31      37.07
C      11.72      15.67      37.73
C      11.17      16.19      38.92
C      11.75      17.37      39.44
C      12.82      18.01      38.78
C      16.21      17.97      38.74
C      17.27      17.31      39.39
C      17.83      16.13      38.85
C      17.24      15.60      37.68
C      16.18      16.27      37.04
C      14.56      32.60      18.00
C      15.76      33.34      18.02
C      15.74      34.75      18.04
C      14.53      35.49      17.98
C      13.33      34.72      18.00
C      13.34      33.32      17.99
C      14.51      37.02      18.11
C      14.49      37.15      19.64
C      13.27      37.06      20.38
C      13.25      37.05      21.78
C      14.44      37.10      22.53
C      15.66      37.12      21.82
C      15.68      37.12      20.41
C      15.69      37.72      17.44
C      13.33      37.70      17.41
C      12.79      38.93      17.87
C      11.73      39.57      17.21
C      11.19      39.05      16.02
C      11.77      37.87      15.50
C      12.83      37.23      16.16
C      16.22      37.27      16.20
C      17.29      37.93      15.56
C      17.84      39.11      16.09
C      17.25      39.64      17.26
C      16.19      38.97      17.90
C      28.41      53.60       9.67
C       1.38       0.57      10.07
C       0.48       1.61       9.77
C      27.49      54.65       9.37
C      26.18      54.42       8.98
C      25.92      54.23       7.57
C      28.06      52.25       9.69
C       0.86       2.95       9.83
C      28.39       1.64      45.27
C       1.37      54.67      44.87
C       0.47      53.63      45.17
C      27.48       0.59      45.57
C      26.17       0.82      45.96
C      25.91       1.02      47.37
C      28.05       2.99      45.25
C       0.85      52.29      45.11
C      28.39      45.42      53.45
C       1.39      45.03       0.42
C       0.49      45.32       1.46
C      27.47      45.72      54.50
C      26.16      46.11      54.28
C      25.89      47.52      54.07
C      28.04      45.40      52.10
C       0.86      45.26       2.80
C      28.41       9.82       1.49
C       1.37      10.21      54.53
C       0.47       9.93      53.48
C      27.50       9.52       0.44
C      26.18       9.14       0.65
C      25.93       7.72       0.82
C      28.06       9.82       2.84
C       0.85       9.99      52.14
C      14.11      26.25      36.74
C      15.62      27.91      37.59
C      14.82      28.95      37.07
C      13.30      27.29      36.21
C      12.13      27.06      35.50
C      10.89      27.17      36.23
C      13.81      24.89      36.64
C      15.15      30.29      37.22
C      14.12      28.99      18.20
C      15.63      27.32      17.36
C      14.83      26.29      17.87
C      13.31      27.95      18.73
C      12.14      28.18      19.44
C      10.90      28.07      18.71
C      13.82      30.35      18.31
C      15.16      24.95      17.73
C      14.12      18.35      26.10
C      15.63      17.50      27.77
C      14.82      18.02      28.80
C      13.31      18.88      27.14
C      12.14      19.59      26.91
C      10.89      18.86      27.02
C      13.82      18.46      24.74
C      15.16      17.87      30.14
C      14.12      36.89      28.84
C      15.63      37.73      27.18
C      14.83      37.22      26.14
C      13.30      36.36      27.80
C      12.13      35.66      28.03
C      10.88      36.38      27.90
C      13.81      36.79      30.20
C      15.16      37.37      24.80
C      20.74      14.38      14.76
C      21.88      14.71      12.67
C      22.75      13.63      12.94
C      21.60      13.29      15.03
C      21.51      12.51      16.18
C      20.67      11.34      16.13
C      19.74      14.83      15.63
C      23.75      13.24      12.05
C      20.73      40.85      40.18
C      21.87      40.53      42.27
C      22.73      41.61      42.01
C      21.60      41.95      39.90
C      21.51      42.72      38.76
C      20.67      43.89      38.80
C      19.74      40.41      39.30
C      23.73      42.00      42.89
C      20.74      40.33      14.24
C      21.88      42.42      14.56
C      22.75      42.16      13.48
C      21.61      40.05      13.14
C      21.52      38.91      12.37
C      20.68      38.94      11.19
C      19.75      39.46      14.68
C      23.75      43.04      13.10
C      20.73      14.91      40.71
C      21.86      12.81      40.39
C      22.74      13.08      41.46
C      21.60      15.18      41.80
C      21.52      16.33      42.57
C      20.69      16.28      43.75
C      19.74      15.78      40.27
C      23.74      12.20      41.84
C       8.44      41.04      14.65
C       7.01      40.41      12.82
C       6.27      41.62      12.94
C       7.71      42.25      14.77
C       7.98      43.21      15.73
C       7.24      43.14      16.97
C       9.52      40.69      15.46
C       5.21      41.92      12.10
C       8.43      14.20      40.29
C       7.00      14.83      42.12
C       6.26      13.62      42.00
C       7.70      12.99      40.17
C       7.97      12.02      39.21
C       7.23      12.09      37.97
C       9.51      14.55      39.48
C       5.20      13.32      42.84
C       8.44      14.79      14.05
C       7.00      12.97      14.67
C       6.27      13.09      13.47
C       7.71      14.92      12.84
C       7.98      15.88      11.87
C       7.24      17.12      11.95
C       9.52      15.61      14.40
C       5.21      12.25      13.17
C       8.43      40.45      40.89
C       7.00      42.27      40.27
C       6.26      42.15      41.47
C       7.70      40.32      42.10
C       7.97      39.35      43.06
C       7.23      38.11      42.99
C       9.51      39.63      40.54
C       5.20      42.99      41.77
N      24.53      12.25      12.29
N       4.53      12.38      12.08
N       0.22       9.80       3.78
N       0.02       3.90       9.64
N      24.52      42.99      42.65
N       4.52      42.86      42.86
N       0.20      45.44      51.16
N       0.00      51.34      45.30
N      24.54      42.80      12.11
N       4.53      43.01      12.23
N       0.22      51.31       9.65
N       0.02      45.45       3.75
N      24.53      12.44      42.83
N       4.52      12.23      42.71
N       0.21       3.93      45.29
N       0.01       9.80      51.19
N      10.14      39.74      39.43
N      18.84      39.55      39.64
N      14.65      37.11      31.12
N      14.34      31.23      36.90
N      10.15      15.50      15.51
N      18.85      15.69      15.30
N      14.65      18.13      23.82
N      14.35      24.01      18.04
N      10.14      15.66      39.59
N      18.84      15.45      39.40
N      14.64      23.97      36.96
N      14.34      18.19      31.08
N      10.15      39.58      15.35
N      18.85      39.79      15.54
N      14.65      31.27      17.98
N      14.35      37.05      23.86
N       0.95      53.96      10.01
N      27.94       1.25       9.43
N       0.94       1.28      44.93
N      27.93      53.99      45.51
N       0.93      45.08      53.81
N      27.95      45.66       1.10
N       0.95      10.15       1.13
N      27.92       9.59      53.83
N      15.24      26.62      37.41
N      13.70      28.58      36.40
N      15.25      28.61      17.54
N      13.71      26.66      18.54
N      15.25      17.68      26.48
N      13.70      18.69      28.43
N      15.25      37.55      28.47
N      13.70      36.55      26.51
N      20.93      15.04      13.58
N      22.55      12.97      14.11
N      20.92      40.20      41.36
N      22.55      42.27      40.83
N      20.93      41.51      14.89
N      22.56      40.98      12.82
N      20.91      13.72      40.06
N      22.55      14.26      42.12
N       8.04      40.18      13.66
N       6.67      42.47      13.92
N       8.03      15.06      41.28
N       6.66      12.76      41.02
N       8.04      13.81      14.91
N       6.67      14.07      12.61
N       8.03      41.43      40.03
N       6.65      41.17      42.32
O      25.34       0.38       9.59
O      25.33       0.17      45.35
O      25.34      45.51       0.24
O      25.34       9.75       0.01
O      12.12      27.51      34.36
O      12.12      27.73      20.58
O      12.12      20.73      27.36
O      12.14      34.51      27.61
O      22.55      12.40      16.81
O      22.56      42.83      38.13
O      22.57      38.28      12.24
O      22.56      16.96      42.69
O       8.18      44.34      15.30
O       8.17      10.89      39.64
O       8.18      15.45      10.74
O       8.18      39.80      44.18
