216

Sc       7.82       1.01       4.88
Sc       4.70       1.01       2.84
Sc       7.82       6.73      10.57
Sc      10.95      -1.01       4.88
Sc       1.57      14.47       2.85
Sc      -1.55       8.75      10.56
Sc       1.57      -1.01      18.29
Sc      -1.56      -1.01      20.32
Sc       1.57       8.77      12.60
Sc       4.70       1.01      18.29
Sc      -4.69       1.02      20.32
Sc       4.69       6.73      12.60
H       6.34      -0.90       3.73
H       2.50       2.88       5.80
H       0.62       1.95       6.74
H       9.42       3.88       7.73
H       0.62       5.80       8.71
H       2.51       4.86       9.65
H       6.22       3.87       7.72
H      10.00       2.89       1.93
H      11.89       1.94       0.97
H      -0.09       0.89       3.71
H       3.75      12.61       5.80
H       5.64      -1.94       6.73
H       9.35      11.61       7.73
H       5.63       9.70       8.71
H       3.75      10.63       9.64
H       0.04      11.62       7.72
H       8.77      12.60       1.93
H       6.88      13.54       0.97
H       0.07       0.89      19.44
H      -3.75      -2.88      17.36
H       6.88      -1.94      16.42
H       3.16      -3.86      15.44
H       6.88       9.69      14.46
H       8.77      10.63      13.52
H      -0.04      -3.87      15.44
H       3.75      -2.88      21.24
H       5.64      -1.93      22.19
H       6.18      -0.89      19.46
H      -2.50       2.89      17.36
H      -0.62       1.95      16.43
H       3.09       3.87      15.45
H      -0.61       5.80      14.45
H      -2.51       4.87      13.52
H       6.29       3.88      15.45
H       2.51       2.89      21.24
H       0.62       1.95      22.19
H       3.13       0.01       4.76
H      -3.13       0.01      18.40
H       9.38       0.00       2.95
H       3.13       0.02      20.21
H      -3.12       7.76      12.49
H       3.13       7.75      10.68
H       6.25       8.64      11.58
H       0.01       6.84      11.59
H       6.29       3.87       0.00
H       3.10       3.86       0.00
H       6.22       3.88      23.17
H       3.17      11.62       0.00
C       5.16       2.57       5.58
C       4.42       3.27       6.67
C       3.02       3.30       6.66
C       2.30       3.87       7.72
C       0.82       3.87       7.72
C       0.10       2.80       7.16
C      -1.30       2.82       7.13
C      10.46       1.72       6.45
C      -2.00       3.87       7.73
C      -1.30       4.93       8.32
C      -2.04       6.03       9.00
C       0.10       4.94       8.29
C       3.03       4.44       8.79
C       4.43       4.47       8.77
C       5.13       3.87       7.72
C       5.17       5.16       9.87
C       7.34       2.59       2.15
C       8.09       3.28       1.05
C       9.49       3.31       1.07
C      -0.10       2.80       0.56
C       1.30       2.81       0.59
C       2.04       1.71       1.28
C       1.10      12.92       5.58
C       1.84      12.22       6.67
C       3.24      12.19       6.66
C       3.96      11.62       7.72
C       5.44      11.62       7.73
C       6.16      12.69       7.16
C       7.56      12.67       7.13
C       8.31      -1.73       6.44
C       8.27      11.62       7.73
C       7.56      10.56       8.32
C       8.30       9.46       9.00
C       6.16      10.56       8.29
C       3.23      11.05       8.79
C       1.83      11.02       8.77
C       1.13      11.62       7.72
C       1.09      10.33       9.87
C      11.43      12.90       2.15
C      10.68      12.21       1.05
C       9.28      12.18       1.07
C       6.36      12.68       0.56
C       4.96      12.67       0.59
C       4.22      13.77       1.27
C      -1.09      -2.58      17.59
C      -1.83      -3.27      16.49
C      -3.23      -3.30      16.51
C      -3.95      -3.87      15.44
C       7.08      -3.87      15.44
C       6.36      -2.80      16.00
C       4.96      -2.81      16.03
C       4.21      -1.71      16.71
C       4.25      -3.86      15.44
C       4.95      -4.92      14.85
C       4.21       9.47      14.17
C       6.35      -4.93      14.88
C      -3.23      -4.44      14.38
C      -1.83      -4.47      14.39
C      -1.12      -3.87      15.44
C      -1.08      10.33      13.30
C       1.08      -2.60      21.01
C       1.83      -3.27      22.11
C       3.23      -3.30      22.10
C       6.16      -2.80      22.61
C      -4.95      -2.82      22.57
C      -4.20      -1.72      21.88
C       7.34       2.59      17.59
C      -4.42       3.28      16.50
C      -3.02       3.31      16.51
C      -2.30       3.88      15.44
C      -0.82       3.88      15.44
C      -0.10       2.81      16.01
C       1.30       2.82      16.04
C       2.03       1.73      16.74
C       2.01       3.87      15.45
C       1.31       4.92      14.85
C       2.06       6.02      14.16
C      -0.10       4.94      14.87
C      -3.03       4.45      14.38
C       8.08       4.47      14.39
C       7.38       3.88      15.45
C       7.33       5.15      13.29
C       5.17       2.60      21.02
C       4.43       3.28      22.12
C       3.03       3.31      22.10
C       0.10       2.81      22.61
C      -1.30       2.82      22.58
C      -2.04       1.72      21.89
C       7.38       3.87       0.00
C      10.21       3.88       0.00
C      11.69       3.87       0.00
C       2.01       3.87       0.00
C      11.39      11.61       0.00
C       8.56      11.61       0.00
C       7.08      11.61       0.00
C       4.25      11.61       0.00
O       4.53       2.32       4.50
O       6.37       2.23       5.81
O       6.38       5.50       9.63
O       4.55       5.40      10.96
O      -1.40       7.10       9.25
O       9.25       5.81       9.31
O       9.25       1.96       6.13
O      -1.43       0.63       6.20
O       6.13       2.25       1.91
O       7.96       2.34       3.24
O       1.41       0.63       1.53
O       3.26       1.93       1.58
O       6.27       0.06       3.85
O       1.72      13.16       4.49
O      -0.11      13.26       5.81
O      -0.12      10.00       9.63
O       1.71      10.09      10.96
O       7.67       8.38       9.25
O       9.52       9.67       9.31
O       9.52      -1.97       6.12
O       7.69      -0.65       6.19
O       0.13      13.23       1.92
O      10.80      13.13       3.24
O       4.86      14.84       1.53
O       3.00      13.55       1.59
O      -0.01      -0.07       3.85
O      -1.71      -2.33      18.67
O       0.12      -2.24      17.35
O       0.14      10.03      13.51
O      -1.72      10.06      12.22
O       4.83       8.38      13.92
O       3.00       9.70      13.85
O       3.00      -1.93      17.03
O       4.85      -0.63      16.96
O      -0.13      -2.27      21.24
O       1.71      -2.36      19.92
O      -4.83      -0.64      21.63
O      -2.99      -1.95      21.57
O       0.01      -0.07      19.32
O      -4.55       2.34      18.68
O       6.13       2.25      17.35
O       6.12       5.47      13.53
O       7.95       5.39      12.20
O       1.43       7.10      13.90
O       3.27       5.78      13.85
O       3.24       1.95      17.08
O       1.40       0.64      16.98
O       6.39       2.30      21.23
O       4.53       2.33      19.95
O      -1.42       0.64      21.64
O      -3.26       1.95      21.58
O       6.27       0.06      19.31
O       3.13      -0.00       3.79
O      -3.11       0.03      19.37
O       9.40       0.02       3.92
O       3.14      -0.01      19.24
O       9.39       7.74      11.52
O       3.15       7.77      11.65
O       6.26       7.67      11.59
O       0.02       7.81      11.58
