38

C       5.96      -1.80      14.03
C       5.99       0.12      12.49
C       6.42      -3.15      14.37
C       6.47      -1.14      12.91
C       6.50       0.69      11.23
O       8.83       3.13       7.38
O       7.95       1.28       6.52
C       6.65      -3.54      15.70
C       6.64      -4.08      13.33
C       6.75       2.06      11.06
C       6.75      -0.20      10.16
C       7.13      -4.81      15.99
C       7.10      -5.35      13.62
C       7.29       2.53       9.86
C       7.26       0.27       8.97
C       7.38      -5.72      14.94
C       7.55       1.64       8.82
C       7.97      -7.05      15.19
C       8.13       2.05       7.52
O       2.76      -0.13      15.98
O       2.82       1.76      14.75
H       4.50      -1.67      15.62
H       4.56       1.69      12.95
H       7.27      -1.60      12.34
H       6.47      -2.83      16.50
H       6.42      -3.79      12.30
H       6.56       2.75      11.88
H       6.51      -1.25      10.27
H       7.31      -5.13      17.01
H       7.28      -6.08      12.83
H       7.49       3.59       9.72
H       7.46      -0.39       8.13
O       8.50      -7.34      16.33
O       7.97      -7.90      14.23
C       3.28       0.63      15.08
C       4.46       0.08      14.37
C       4.95      -1.17      14.77
C       4.98       0.73      13.25
