38

C       4.19      -1.42      23.57
C       4.77      -1.97      24.81
O       7.82      -1.56      28.50
C       5.79      -1.31      25.51
C       4.29      -3.18      25.33
O       7.96      -0.17      26.73
C       6.29      -1.84      26.70
C       4.79      -3.73      26.52
C       5.78      -3.04      27.23
C       7.43      -1.15      27.37
C       4.21      -5.00      26.98
C       3.80      -5.20      28.31
C       3.97      -6.02      26.03
C       3.09      -6.34      28.66
C       3.27      -7.16      26.39
C       2.79      -7.31      27.70
O       1.60       1.27      20.21
C       1.92      -8.47      28.01
H       3.21       1.54      22.18
H       2.76      -2.46      20.64
H       4.32       0.64      24.20
H       3.95      -3.36      22.63
O       1.82      -0.73      19.20
H       6.22      -0.38      25.13
H       3.48      -3.69      24.82
H       6.19      -3.43      28.15
H       4.00      -4.43      29.06
H       4.33      -5.89      25.01
H       2.75      -6.47      29.68
H       3.05      -7.93      25.65
C       2.05       0.08      20.18
C       2.87      -0.41      21.31
O       1.82      -9.40      27.12
C       3.34       0.46      22.30
C       3.11      -1.79      21.43
O       1.28      -8.49      29.11
C       4.00      -0.04      23.42
C       3.76      -2.29      22.55
