14

C       2.10       5.84       9.85
C       1.61       4.96       8.80
O       0.92       4.89       6.07
O       2.78       5.90      12.58
C       1.77       4.09       6.60
C       1.93       6.71      12.05
O       1.97       2.89       6.19
O       1.73       7.91      12.46
H       0.56       4.69       8.79
H       3.15       6.11       9.87
H       3.47       4.76       7.81
H       0.23       6.04      10.84
C       1.30       6.24      10.84
C       2.41       4.56       7.81
