14

O       2.78       5.90      15.40
O       0.92       4.89      21.91
C       1.93       6.71      15.93
C       1.77       4.09      21.38
H       3.15       6.11      18.11
H       0.56       4.69      19.19
O       1.73       7.91      15.52
O       1.97       2.89      21.79
H       0.23       6.04      17.14
H       3.47       4.76      20.17
C       2.41       4.56      20.17
C       1.30       6.24      17.14
C       1.61       4.96      19.18
C       2.10       5.83      18.13
