28

O       8.28       5.77       6.17
O       5.45       5.02      12.49
H       5.27       0.99       8.61
H       8.47       9.81      10.04
H       3.93       4.24      10.97
H       9.80       6.56       7.68
H       7.21       2.34       7.95
H       6.53       8.46      10.70
H       3.60       2.00      10.15
H      10.13       8.80       8.51
C       5.79       4.64       9.85
C       7.95       6.16       8.80
C       7.90       4.71       6.77
C       5.84       6.09      11.89
C       6.19       5.85      10.47
C       7.55       4.95       8.19
C       4.66       3.87      10.27
C       9.07       6.93       8.38
C       4.45       2.58       9.79
C       9.29       8.22       8.86
C       5.36       2.02       8.92
C       8.37       8.78       9.73
C       6.42       2.79       8.47
C       7.31       8.00      10.18
C       6.58       4.13       8.81
C       7.16       6.66       9.84
O       7.10       3.96       6.05
O       6.64       6.84      12.60
