16

F      14.16       8.45      12.51
F      13.40      10.60      11.12
F      17.48      10.48       8.67
F      18.26       8.34      10.05
O      15.70       6.06      11.82
O      17.60       6.92      12.74
O      15.16      11.85       7.88
C      16.58       7.00      12.04
C      16.23       8.29      11.32
C      15.00       8.93      11.57
C      14.60      10.06      10.87
C      15.42      10.60       9.86
C      16.65       9.98       9.61
C      17.06       8.87      10.34
C      15.00      11.82       9.13
O      14.50      12.75       9.86
