16

C       3.67       7.90       0.02
C       3.25       7.18      -1.12
C       4.15       7.18       1.13
C       3.51       9.38       0.17
O       4.12       2.86       0.86
O       3.37      10.11      -0.86
O       3.49       9.85       1.36
H       3.03       5.23      -2.01
C       3.82       5.07      -0.02
C       4.23       5.78       1.12
C       3.34       5.79      -1.13
C       3.98       3.59      -0.17
O       2.75       7.83      -2.22
H       4.46       7.73       2.01
O       4.00       3.12      -1.36
O       4.74       5.13       2.22
