16

C       7.41       5.07       0.03
C       7.00       5.78      -1.12
O       8.48       7.84       2.22
C       7.90       5.79       1.13
C       7.26       3.59       0.16
H       8.20       5.24       2.01
O       7.86      10.11       0.87
O       7.74       9.86      -1.35
O       7.12       2.86      -0.87
O       7.23       3.11       1.35
O       6.49       5.12      -2.22
H       6.77       7.73      -2.01
C       7.56       7.90      -0.03
C       7.97       7.18       1.12
C       7.08       7.17      -1.13
C       7.72       9.38      -0.16
