17

O       2.89       8.88      13.49
O      -0.30      12.56      12.41
H       3.29       8.10      13.96
H      -2.32       9.46      13.83
H       1.16       6.93      14.29
H       1.59      10.97      12.85
O      -0.96       5.81      14.83
O      -2.78       7.09      14.76
O      -2.29      11.85      13.17
C      -1.52       6.95      14.59
C      -0.67       8.07      14.11
C      -1.26       9.30      13.76
C       0.72       7.89      14.03
C      -0.44      10.34      13.30
C       0.95      10.17      13.21
C       1.54       8.95      13.60
C      -1.04      11.65      12.94
