17

O       1.00       3.65       7.97
O       3.04       4.32       8.72
O       3.72       3.99      13.75
O       2.01       4.48      15.04
O      -1.94       3.14      11.75
C       1.83       3.92       8.90
C       1.33       3.74      10.30
C       2.15       3.90      11.43
C       1.58       3.82      12.71
C       0.20       3.56      12.86
C      -0.61       3.39      11.72
C      -0.03       3.47      10.45
C       2.46       4.08      13.88
H      -2.37       3.36      12.61
H       3.21       4.11      11.30
H      -0.24       3.45      13.84
H      -0.66       3.33       9.58
