17

C       5.85       5.64      18.56
C       5.36       5.83      19.96
C       6.17       5.65      21.08
C       5.60       5.74      22.36
C       4.24       6.05      22.51
C       3.44       6.26      21.38
C       4.00       6.15      20.11
C       6.48       5.50      23.52
H       1.68       6.32      22.26
H       7.22       5.42      20.95
H       3.81       6.17      23.50
H       3.37       6.31      19.24
O       5.03       5.92      17.63
O       7.74       5.61      23.38
O       6.04       5.08      24.69
O       2.12       6.58      21.42
O       7.05       5.20      18.38
