334

Na       5.97      -0.26       1.72
Na       5.97      19.90      10.02
Na       5.98      14.01      21.76
Na       5.98      -6.15      13.45
Cd       9.96       2.79      21.28
Cd       3.17      18.07      11.37
Cd       9.96       5.07      13.93
Cd       3.17       1.57       0.37
Cd       1.99      10.96       2.19
Cd       8.77      -4.32      12.10
Cd       1.99       8.68       9.54
Cd       8.77      12.18      23.10
Cd       9.22       3.93      17.60
Cd       2.73       9.82       5.87
H       0.80      14.76       1.71
H       2.38      15.88       3.25
H       2.43      19.34       0.65
H       0.89       6.38      22.56
H       5.43      18.57       4.59
H       5.37      18.48       7.07
H       1.15      17.79       6.97
H       1.18      17.91       4.48
H       5.31      22.54       2.81
H       3.66      20.91       3.71
H       5.16      17.91       1.02
H       6.83      19.56       0.12
H       6.08       4.87      18.07
H       4.20       6.47      17.97
H       4.34       6.92      22.26
H       6.23       5.30      22.36
H       1.78       5.43      19.99
H       0.10       4.74      18.35
H       0.29       8.62      16.47
H       1.99       9.33      18.15
H       1.00       9.20      20.88
H       1.13      11.38      22.05
H       5.42      11.13      22.04
H       5.31       9.04      20.76
H       0.80       4.89      10.03
H       2.38       3.76       8.49
H       2.43       0.31      11.08
H       0.89       1.48      12.64
H       5.43       1.08       7.15
H       5.37       1.16       4.67
H       1.15       1.85       4.76
H       1.18       1.74       7.26
H       5.31      -2.89       8.92
H       3.66      -1.26       8.02
H       5.17       1.73      10.72
H       6.83       0.09      11.62
H       6.08       2.99      17.13
H       4.20       1.40      17.23
H       4.34       0.94      12.95
H       6.23       2.57      12.85
H       1.78       2.43      15.22
H       0.10       3.13      16.86
H       0.29      -0.75      18.74
H       1.99      -1.47      17.06
H       1.00      -1.33      14.33
H       1.13      -3.52      13.15
H       5.42      -3.27      13.17
H       5.31      -1.18      14.45
H      11.14      -1.00      21.77
H       9.56      -2.13      20.22
H       9.51      -5.58      22.82
H      11.05       7.37       0.91
H       6.51      -4.81      18.88
H       6.57      -4.73      16.40
H      10.80      -4.04      16.50
H      10.77      -4.15      18.99
H       6.63      -8.78      20.66
H       8.28      -7.15      19.76
H       6.78      -4.16      22.45
H       5.12      -5.80      23.35
H       5.86       8.88       5.40
H       7.75       7.29       5.50
H       7.60       6.83       1.22
H       5.71       8.46       1.12
H      10.16       8.32       3.48
H      11.85       9.02       5.12
H      11.66       5.14       7.00
H       9.96       4.42       5.32
H      10.95       4.56       2.59
H      10.82       2.37       1.42
H       6.52       2.62       1.43
H       6.63       4.71       2.71
H      11.14       8.87      13.44
H       9.56       9.99      14.99
H       9.51      13.45      12.39
H      11.05      12.27      10.83
H       6.51      12.68      16.32
H       6.57      12.59      18.81
H      10.80      11.90      18.71
H      10.77      12.01      16.22
H       6.63      16.65      14.55
H       8.28      15.02      15.45
H       6.78      12.02      12.75
H       5.12      13.67      11.85
H       5.86      10.76       6.34
H       7.75      12.36       6.24
H       7.60      12.81      10.52
H       5.71      11.19      10.62
H      10.16      11.32       8.25
H      11.85      10.63       6.61
H      11.66      14.51       4.73
H       9.96      15.22       6.42
H      10.95      15.09       9.14
H      10.82      17.27      10.32
H       6.52      17.02      10.30
H       6.63      14.93       9.02
C      11.71       3.98      22.85
C       0.74      16.40       0.30
C       1.16      15.76       1.48
C       2.05      16.39       2.35
C       2.50      17.70       2.07
C       2.09      18.33       0.88
C       1.23      17.68       0.01
C       3.31      18.25       4.36
C       4.49      18.41       5.11
C       4.46      18.37       6.49
C       3.26      18.15       7.18
C       2.08      17.96       6.44
C       2.10      18.02       5.05
C       3.26      18.13       8.67
C       7.14      22.16       0.89
C       6.17      21.15       1.41
C       5.28      21.52       2.43
C       4.35      20.61       2.93
C       4.31      19.31       2.42
C       5.20      18.93       1.40
C       6.13      19.85       0.90
C       7.41       4.00      20.27
C       6.27       4.96      20.23
C       5.69       5.30      18.99
C       4.64       6.20      18.93
C       4.15       6.80      20.11
C       4.73       6.47      21.35
C       5.78       5.56      21.40
C       2.01       7.42      19.16
C       1.46       6.13      19.22
C       0.50       5.74      18.29
C       0.08       6.63      17.28
C       0.60       7.93      17.25
C       1.55       8.33      18.19
C       3.15       8.96      20.74
C       1.97       9.63      21.11
C       2.04      10.85      21.78
C       3.28      11.40      22.14
C       4.45      10.72      21.78
C       4.39       9.53      21.07
C       3.37      12.71      22.84
C      11.14       6.14      16.20
C      11.71       3.88      12.35
C       0.74       3.24      11.43
C       1.16       3.88      10.25
C       2.05       3.25       9.38
C       2.50       1.95       9.67
C       2.09       1.31      10.86
C       1.23       1.96      11.73
C       3.31       1.39       7.38
C       4.49       1.24       6.63
C       4.46       1.28       5.24
C       3.26       1.50       4.55
C       2.08       1.68       5.30
C       2.10       1.63       6.69
C       3.26       1.52       3.07
C       7.14      -2.51      10.85
C       6.17      -1.51      10.33
C       5.28      -1.88       9.31
C       4.35      -0.97       8.81
C       4.31       0.34       9.32
C       5.20       0.72      10.34
C       6.13      -0.20      10.84
C       7.41       3.86      14.94
C       6.27       2.90      14.98
C       5.69       2.57      16.21
C       4.64       1.66      16.27
C       4.15       1.06      15.10
C       4.73       1.40      13.86
C       5.78       2.30      13.81
C       2.01       0.44      16.05
C       1.46       1.73      15.98
C       0.50       2.12      16.92
C       0.08       1.24      17.93
C       0.60      -0.07      17.95
C       1.55      -0.47      17.02
C       3.15      -1.10      14.47
C       1.97      -1.77      14.09
C       2.04      -2.99      13.42
C       3.28      -3.54      13.07
C       4.45      -2.85      13.43
C       4.39      -1.67      14.14
C       3.37      -4.85      12.37
C      11.14       1.73      19.00
C       0.23       9.77       0.62
C      11.21      -2.65      23.17
C      10.78      -2.01      21.99
C       9.90      -2.64      21.12
C       9.44      -3.94      21.40
C       9.85      -4.58      22.59
C      10.72      -3.93      23.46
C       8.64      -4.50      19.11
C       7.45      -4.65      18.36
C       7.48      -4.61      16.98
C       8.69      -4.39      16.29
C       9.86      -4.21      17.03
C       9.85      -4.26      18.43
C       8.69      -4.37      14.81
C       4.80      -8.40      22.58
C       5.77      -7.40      22.06
C       6.67      -7.77      21.05
C       7.59      -6.86      20.54
C       7.63      -5.55      21.05
C       6.74      -5.18      22.07
C       5.82      -6.09      22.57
C       4.54       9.75       3.20
C       5.67       8.79       3.24
C       6.26       8.46       4.48
C       7.31       7.55       4.54
C       7.79       6.95       3.36
C       7.21       7.29       2.13
C       6.16       8.19       2.07
C       9.93       6.33       4.31
C      10.49       7.62       4.25
C      11.44       8.01       5.18
C      11.86       7.13       6.19
C      11.34       5.82       6.22
C      10.39       5.42       5.28
C       8.80       4.79       2.74
C       9.98       4.12       2.36
C       9.91       2.90       1.69
C       8.67       2.35       1.33
C       7.49       3.04       1.69
C       7.55       4.22       2.41
C       8.58       1.04       0.63
C       0.81       7.62       7.27
C       0.23       9.87      11.12
C      11.21      10.51      12.04
C      10.78       9.87      13.22
C       9.90      10.50      14.09
C       9.44      11.81      13.81
C       9.85      12.44      12.62
C      10.72      11.79      11.74
C       8.64      12.36      16.10
C       7.45      12.52      16.84
C       7.48      12.48      18.23
C       8.69      12.26      18.92
C       9.86      12.07      18.17
C       9.85      12.13      16.78
C       8.69      12.24      20.40
C       4.80      16.27      12.62
C       5.77      15.26      13.15
C       6.67      15.63      14.16
C       7.59      14.72      14.66
C       7.63      13.42      14.15
C       6.74      13.04      13.13
C       5.82      13.96      12.63
C       4.54       9.89       8.53
C       5.67      10.85       8.49
C       6.26      11.19       7.26
C       7.31      12.10       7.20
C       7.79      12.69       8.37
C       7.21      12.36       9.61
C       6.16      11.45       9.67
C       9.93      13.31       7.42
C      10.49      12.02       7.49
C      11.44      11.63       6.56
C      11.86      12.52       5.54
C      11.34      13.82       5.52
C      10.39      14.22       6.46
C       8.80      14.85       9.00
C       9.98      15.52       9.38
C       9.91      16.74      10.05
C       8.67      17.29      10.40
C       7.49      16.61      10.04
C       7.55      15.42       9.33
C       8.58      18.60      11.11
C       0.81      12.03       4.47
N       3.38      18.37       2.95
N       3.09       7.74      20.04
N       3.38       1.27       8.78
N       3.09       0.13      15.17
N       8.57      -4.62      20.52
N       8.86       6.02       3.44
N       8.57      12.48      14.69
N       8.86      13.63       8.30
O      10.68       4.91      16.27
O      10.89       6.84      15.18
O      11.19       2.85      23.19
O      11.41       4.57      21.76
O       7.95       3.75      21.40
O       7.78       3.44      19.17
O       2.32      13.44      22.93
O       4.51      13.10      23.29
O       7.96      10.04      23.44
O       7.12      23.35       1.37
O       2.21      17.76       9.29
O       4.33      18.49       9.29
O      10.68       2.96      18.94
O      10.89       1.03      20.03
O      11.19       5.01      12.02
O      11.41       3.30      13.45
O       7.95       4.12      13.81
O       7.78       4.42      16.04
O       2.32      -5.58      12.27
O       4.51      -5.23      11.92
O       7.96      -2.18      11.77
O       7.12      -3.70      10.37
O       2.21       1.89       2.44
O       4.33       1.16       2.44
O       1.26       8.85       7.21
O       1.06       6.92       8.29
O       0.76      10.90       0.29
O       0.54       9.19       1.72
O       3.99      10.01       2.07
O       4.17      10.31       4.30
O       9.63       0.31       0.54
O       7.44       0.66       0.18
O       3.99       3.71       0.03
O       4.83      -9.60      22.11
O       9.74      -4.00      14.18
O       7.62      -4.73      14.18
O       1.26      10.80       4.53
O       1.06      12.73       3.44
O       0.76       8.74      11.45
O       0.54      10.46      10.02
O       3.99       9.64       9.66
O       4.17       9.33       7.43
O       9.63      19.33      11.20
O       7.44      18.99      11.55
O       3.98      15.93      11.70
O       4.83      17.46      13.10
O       9.74      11.87      21.03
O       7.62      12.60      21.03
