496

Co       7.06      10.71       5.03
Co       4.81       9.24       6.20
Co       4.49      12.49       5.67
Co      15.55       0.16      22.28
Co      13.28       1.63      23.46
Co      12.99      20.10      22.93
Co       1.48      21.58      12.22
Co       3.74      20.11      11.04
Co       4.04       1.64      11.58
Co       9.97      11.02      29.48
Co      12.23      12.50      28.31
Co      12.55       9.26      28.85
H      13.17      20.87      31.45
H       7.25      19.08       2.20
H      11.55       2.23      34.01
H       8.41      20.97       2.61
H      12.16      19.80      33.03
H       9.38       3.17       1.48
H       1.53      19.39       1.96
H       1.73       3.72       0.21
H       4.95      21.33      30.34
H       4.18       2.54      33.33
H       6.21      17.92       3.78
H       2.29      21.38       1.78
H       5.86      15.78       5.01
H      11.65       1.86      29.41
H      11.54       1.69      26.92
H       4.68      20.12      32.27
H       8.98      13.93       2.70
H      13.29      19.59      29.59
H       4.35      21.53      25.70
H      13.16      19.43      27.10
H       9.28       7.47       3.11
H       2.28       5.86       0.20
H       1.92       3.74       3.93
H       9.92       5.31       2.05
H       2.65       5.79       5.15
H       2.60      16.40       5.22
H       6.35       3.48       3.63
H       5.74       5.64       4.70
H       9.38      16.09       1.50
H       1.96      18.43       3.93
H       3.13      16.48       0.27
H       3.06       7.88       1.43
H       5.34      21.35      27.99
H      15.47       0.99      29.68
H       3.78      14.45       1.58
H      14.54       1.25      27.41
H       4.64      11.76      14.20
H       1.88      13.51      19.44
H       3.01       8.67      16.76
H       3.05      11.63      19.88
H       3.65      12.82      15.79
H       4.00       7.70      18.74
H      10.05      13.20      19.23
H      10.22       7.13      17.47
H      10.31      11.28      13.09
H       9.53       8.35      16.09
H      14.73      14.68      21.03
H      10.81      11.21      19.04
H      14.38      16.81      22.27
H       3.14       9.03      12.17
H       3.04       9.18       9.68
H      10.04      12.49      15.01
H       3.61      18.67      19.96
H       4.76      13.01      12.32
H       9.70      11.07       8.45
H       4.65      13.16       9.84
H       3.87       3.40      20.37
H      10.81       5.01      17.44
H      10.46       7.11      21.19
H       4.53       5.57      19.32
H      11.17       5.03      22.39
H      11.11      16.18      22.48
H      14.85       7.42      20.91
H      14.21       5.25      21.96
H       4.02      16.51      18.76
H      10.47      14.16      21.19
H      11.64      16.11      17.53
H      11.58       2.97      18.66
H      10.69      11.28      10.73
H       6.96       9.92      12.44
H      12.29      18.14      18.83
H       6.03       9.64      10.17
H      12.39       9.99      20.32
H      15.15       8.22      15.07
H      14.02      13.07      17.74
H      13.99      10.11      14.64
H      13.39       8.93      18.74
H      13.03      14.03      15.77
H       6.98       8.54      15.29
H       6.78      14.60      17.05
H       6.73      10.45      21.42
H       7.50      13.39      18.43
H       2.30       7.06      13.48
H       6.22      10.54      15.47
H       2.65       4.92      12.25
H      13.89      12.72      22.35
H      14.00      12.56      24.84
H       6.99       9.25      19.50
H      13.41       3.07      14.57
H      12.27       8.74      22.19
H       7.33      10.68      26.07
H      12.38       8.58      24.67
H      13.15      18.34      14.17
H       6.22      16.73      17.06
H       6.58      14.60      13.33
H      12.50      16.17      15.21
H       5.88      16.67      12.11
H       5.92       5.55      12.04
H       2.18      14.33      13.60
H       2.81      16.50      12.56
H      13.02       5.23      15.76
H       6.56       7.58      13.33
H       5.38       5.63      16.99
H       5.49      18.77      15.82
H       6.33      10.49      23.78
H      10.06      11.84      22.08
H       4.74       3.60      15.68
H      11.00      12.11      24.36
H       3.86       0.88       3.06
H       9.78       2.67      32.31
H       5.50      19.52       0.50
H       8.63       0.79      31.90
H       4.87       1.95       1.48
H       7.66      18.60      33.00
H      15.50       2.35      32.55
H      15.30      18.02      34.31
H      12.08       0.41       4.17
H      12.86      19.21       1.18
H      10.82       3.83      30.74
H      14.75       0.36      32.73
H      11.17       5.97      29.51
H       5.38      19.89       5.10
H       5.49      20.05       7.59
H      12.35       1.63       2.25
H       8.06       7.82      31.81
H       3.75       2.15       4.93
H      12.69       0.19       8.82
H       3.87       2.31       7.41
H       7.76      14.28      31.41
H      14.74      15.89      34.32
H      15.12      18.02      30.59
H       7.13      16.45      32.47
H      14.39      15.96      29.37
H      14.43       5.34      29.29
H      10.69      18.27      30.87
H      11.31      16.10      29.81
H       7.65       5.66      33.01
H      15.07       3.31      30.58
H      13.90       5.26      34.25
H      13.97      13.87      33.08
H      11.70       0.40       6.53
H       1.56      20.77       4.83
H      13.25       7.29      32.94
H       2.49      20.49       7.10
C       8.77      20.22       0.61
C      11.67       1.21      34.34
C      11.85       0.65      31.94
C       8.54      21.22       1.56
C      11.89       0.21      33.37
C      12.03      20.60      33.77
C       8.42       0.84       1.17
C       4.46       1.54      33.64
C       8.01       1.83       2.22
C       1.92       2.21       1.53
C       6.83      17.05       3.56
C       2.01      21.59       0.75
C       1.73       1.21       0.43
C       2.35      19.17       0.09
C      12.48      21.59      29.66
C       5.11      20.61      34.31
C      15.72       0.73      25.06
C       8.16       4.26       2.76
C       7.83      17.14       2.57
C      12.34      21.41      26.86
C       4.37       0.52      32.67
C       8.90      18.78       1.01
C       2.08       4.66       1.98
C       7.07      13.44       4.60
C      12.37      21.39      25.37
C       6.62      15.85       4.24
C       2.45       0.57      26.41
C      11.97       0.96      28.91
C      11.90       0.85      27.52
C       4.75      20.93      32.99
C       8.38      14.81       2.94
C       7.47       6.68       3.98
C       7.05       7.95       4.62
C       3.73       0.89      31.38
C       2.51      17.58       2.02
C       3.53       0.32      28.98
C      12.90      20.42      29.00
C       3.76       0.08      26.58
C       7.39      14.72       3.93
C      12.83      20.33      27.61
C       2.93       6.95       3.36
C       3.22      15.30       3.47
C       8.65       6.59       3.22
C       2.36       5.84       1.28
C       2.16       4.64       3.39
C       9.00       5.39       2.62
C       2.57       5.79       4.06
C       2.71      16.43       4.14
C       6.98       4.35       3.52
C       6.65       5.55       4.12
C       8.62      16.01       2.27
C       3.62      14.14       4.26
C       2.36      17.56       3.42
C       3.02      16.46       1.35
C       2.79       6.97       1.96
C       4.31      21.69      27.86
C      16.08       0.76      28.82
C       3.56       8.12       4.04
C       3.38      15.33       2.08
C      15.56       0.90      27.54
C       3.41      12.37      17.87
C       3.15       9.70      17.09
C       3.33      10.25      14.69
C       3.17      11.38      18.83
C       3.37      10.69      16.12
C       3.51      12.03      16.52
C       3.05      10.04      18.44
C       9.83       9.36      16.39
C       2.65       9.05      19.49
C      10.47       8.64      18.78
C      15.34      15.55      20.81
C      10.52      10.99      18.02
C      10.25       9.65      17.69
C      10.86      13.41      17.35
C       3.95      11.02      12.40
C      10.47      12.00      17.05
C       7.22      10.13       7.81
C       2.78       6.62      20.03
C       2.47      15.46      19.83
C       3.82      11.18       9.60
C       9.74      10.37      15.42
C       3.54      13.82      18.28
C      10.61       6.20      19.24
C      15.58      19.15      21.86
C       3.86      11.19       8.11
C      15.14      16.74      21.49
C       7.82      10.30       9.16
C       3.46       9.93      11.66
C       3.40      10.03      10.27
C      10.10      11.68      15.74
C       3.02      17.78      20.20
C       2.05       4.19      21.22
C      15.50       2.93      21.85
C       9.10      10.00      14.13
C      11.02      15.01      19.28
C       8.90      10.58      11.73
C       4.38      12.18      11.73
C       9.12      10.80       9.33
C       2.03      17.88      21.19
C       4.31      12.27      10.35
C      11.44       3.89      20.60
C      11.73      17.29      20.73
C       3.24       4.28      20.48
C      10.89       5.01      18.53
C      10.69       6.20      20.64
C       3.60       5.49      19.89
C      11.09       5.05      21.31
C      11.22      16.16      21.40
C      15.47       6.54      20.79
C      15.12       5.33      21.38
C       3.25      16.59      19.52
C      12.13      18.46      21.52
C      10.87      15.03      20.68
C      11.54      16.13      18.60
C      11.31       3.88      19.20
C       9.66      10.92      10.60
C       7.57      10.14      11.57
C      12.04       2.70      21.28
C      11.89      17.26      19.34
C       7.05       9.98      10.29
C      13.63       9.37      16.64
C      13.89      12.04      17.42
C      13.70      11.49      19.83
C      13.87      10.36      15.69
C      13.67      11.06      18.39
C      13.53       9.72      18.00
C      13.98      11.70      16.07
C       7.20      12.38      18.12
C      14.39      12.69      15.02
C       6.58      13.09      15.73
C       1.69       6.19      13.70
C       6.51      10.75      16.50
C       6.78      12.09      16.83
C       6.17       8.33      17.16
C      13.08      10.73      22.11
C       6.56       9.74      17.46
C       9.82      11.58      26.70
C      14.25      15.12      14.49
C      14.57       6.28      14.69
C      13.21      10.56      24.92
C       7.29      11.37      19.09
C      13.49       7.93      16.24
C       6.43      15.53      15.27
C       1.45       2.58      12.66
C      13.18      10.55      26.40
C       1.89       5.00      13.02
C       9.21      11.42      25.35
C      13.57      11.82      22.86
C      13.64      11.72      24.25
C       6.93      10.06      18.78
C      14.01       3.95      14.32
C      14.96      17.56      13.30
C       1.50      18.82      12.66
C       7.94      11.74      20.39
C       6.00       6.73      15.24
C       8.13      11.17      22.79
C      12.65       9.57      22.78
C       7.91      10.94      25.19
C      15.00       3.86      13.33
C      12.72       9.48      24.16
C       5.63      17.84      13.89
C       5.30       4.45      13.79
C      13.78      17.46      14.05
C       6.16      16.72      15.97
C       6.35      15.51      13.87
C      13.42      16.25      14.64
C       5.96      16.67      13.19
C       5.81       5.57      13.12
C       1.55      15.21      13.73
C       1.89      16.42      13.14
C      13.78       5.15      15.00
C       4.89       3.28      13.00
C       6.16       6.71      13.84
C       5.49       5.61      15.91
C       5.75      17.86      15.29
C       7.36      10.83      23.91
C       9.46      11.61      22.95
C       5.03      19.03      13.21
C       5.14       4.48      15.18
C       9.98      11.75      24.22
C       8.27       1.53      33.91
C       5.37      20.54       0.17
C       5.19      21.10       2.57
C       8.50       0.54      32.95
C       5.15      21.53       1.14
C       5.00       1.15       0.75
C       8.63      20.91      33.33
C      12.57      20.21       0.88
C       9.05      19.92      32.29
C      15.11      19.54      32.99
C      10.20       4.70      30.96
C      15.03       0.15      33.76
C      15.31      20.54      34.09
C      14.69       2.57      34.42
C       4.56       0.15       4.85
C      11.92       1.13       0.21
C       1.31      20.99       9.45
C       8.88      17.49      31.75
C       9.20       4.61      31.94
C       4.69       0.33       7.66
C      12.66      21.22       1.84
C       8.14       2.97      33.51
C      14.95      17.09      32.53
C       9.97       8.31      29.92
C       4.66       0.35       9.14
C      10.41       5.89      30.28
C      14.58      21.16       8.10
C       5.06      20.79       5.61
C       5.13      20.89       6.99
C      12.29       0.82       1.52
C       8.65       6.94      31.57
C       9.57      15.06      30.54
C       9.98      13.79      29.89
C      13.30      20.86       3.13
C      14.52       4.16      32.49
C      13.50      21.42       5.53
C       4.13       1.32       5.52
C      13.28      21.65       7.93
C       9.64       7.03      30.59
C       4.20       1.41       6.90
C      14.11      14.79      31.15
C      13.81       6.44      31.04
C       8.39      15.16      31.29
C      14.67      15.90      33.23
C      14.88      17.11      31.13
C       8.04      16.36      31.89
C      14.46      15.96      30.45
C      14.33       5.32      30.38
C      10.06      17.40      30.99
C      10.39      16.19      30.39
C       8.42       5.74      32.25
C      13.41       7.61      30.26
C      14.67       4.18      31.09
C      14.01       5.28      33.17
C      14.24      14.77      32.55
C      12.72       0.05       6.66
C       0.95      20.99       5.69
C      13.48      13.61      30.47
C      13.65       6.42      32.44
C       1.47      20.84       6.97
N      12.57      21.60      31.06
N       7.97      18.39       1.94
N       8.53       3.10       2.06
N       2.12      18.78       1.38
N       1.74       3.53       1.21
N       4.11       0.20      30.27
N       4.04      11.02      13.81
N       2.60      14.21      19.19
N       3.15       7.78      19.33
N      10.64      13.81      18.64
N      10.25       7.33      18.46
N       9.48      10.70      13.01
N      12.99      10.73      20.71
N      14.43       7.53      15.33
N      13.87      13.96      15.18
N       6.39       7.93      15.88
N       6.77      14.40      16.05
N       7.56      11.04      21.50
N       4.47       0.15       3.45
N       9.06       3.36      32.58
N       8.51      18.66      32.43
N      14.91       2.97      33.13
N      15.29      18.22      33.31
N      12.93      21.56       4.25
O      11.20       1.66      31.61
O       7.22       1.50       3.11
O       2.24       1.83       2.67
O       5.21      10.92       5.33
O      16.73       1.78      31.35
O       9.78      18.06       0.52
O      12.79      20.31      24.80
O       7.64       9.05       4.25
O       2.46       0.20      24.06
O       5.99      18.48      33.72
O      12.02       0.73      24.73
O       7.58      12.35       4.12
O       6.12       7.88       5.48
O       6.30      13.46       5.62
O      14.63       1.39      25.00
O       4.24      13.12       3.78
O       3.43      14.10       5.54
O       3.46       8.15       5.36
O       4.19       8.96       3.38
O       2.69       9.24      14.36
O      15.74       9.39      20.39
O      10.85       9.00      19.91
O      13.71      21.68      22.59
O       8.23       9.11      14.10
O       4.43      14.54      17.80
O       4.26      12.28       7.55
O       2.23       1.83      21.50
O       7.84      10.65       6.81
O      11.35      14.13      16.46
O       3.53      10.13       7.48
O       2.22      20.25      21.38
O      14.56       3.00      22.71
O      14.79      19.13      22.86
O       6.12       9.48       7.75
O      12.75      19.48      21.03
O      11.94      18.49      22.80
O      11.91       2.66      22.59
O      12.67       1.86      20.62
O      14.34      12.51      20.16
O       1.29      12.36      14.12
O       6.24      12.70      14.59
O       3.32       0.06      11.89
O       8.80      12.63      20.42
O      12.60       7.21      16.71
O      12.77       9.47      26.97
O      14.80      19.92      13.02
O       9.20      11.04      27.69
O       5.67       7.61      18.05
O      13.51      11.61      27.04
O      14.81       1.49      13.14
O       2.42      18.75      11.79
O       2.23       2.61      11.65
O      10.90      12.25      26.77
O       4.28       2.26      13.48
O       5.09       3.25      11.71
O       5.07      19.02      11.88
O       4.50      19.93      13.87
O       5.83      20.08       2.90
O       9.87      20.25      31.42
O      14.80      19.92      31.84
O      11.83      10.83      29.18
O      14.17      19.96       3.16
O       7.26       3.69      34.01
O       4.25       1.44       9.71
O       9.38      12.70      30.22
O      14.57      21.52      10.45
O      11.05       3.27       0.80
O       5.01      21.02       9.78
O       9.45       9.40      30.40
O      10.92      13.86      29.04
O      10.75       8.29      28.91
O       2.41      20.35       9.51
O      12.80       8.63      30.74
O      13.61       7.64      28.97
O      13.57      13.59      29.15
O      12.88      12.76      31.14
