26

O       6.48       7.20       0.67
C       9.89       6.75       4.33
H      10.89       7.53       2.57
O      15.90       6.95       6.61
O      15.01       5.47       8.09
H       8.86       7.50       1.15
O       5.44       5.82       2.14
C       7.54       6.20       4.00
C       8.66       6.27       4.82
C      13.58       6.54       6.53
C      12.49       5.72       6.88
H      10.48       5.13       6.44
H      14.24       8.17       5.30
C       7.61       6.64       2.67
C       6.42       6.55       1.76
C      12.19       7.62       4.87
C      14.93       6.31       7.14
H      12.63       4.99       7.67
C      13.40       7.51       5.54
C       8.82       7.16       2.18
H       8.57       5.96       5.86
C      11.29       5.81       6.20
C       9.95       7.19       2.99
H       6.61       5.80       4.39
H      12.06       8.39       4.11
C      11.12       6.74       5.15
