26

O       5.44       4.41      14.63
O       8.65      -4.44       8.69
O       7.67      -5.86      10.16
H       7.57      -0.15      10.59
C       7.36      -3.75      12.02
H       5.42      -1.30      14.46
H       6.81      -2.85      13.88
C       5.14       3.29      15.16
H       8.18      -2.09       9.17
O       4.31       3.10      16.11
C       6.76       2.22      13.56
C       7.15      -1.35      12.35
C       7.55      -1.16      11.01
H       7.12       3.22      13.31
H       7.28      -4.76      12.41
H       4.61       0.69      15.69
C       5.82      -0.32      14.22
C       7.87      -2.24      10.20
C       5.78       2.08      14.55
C       5.35       0.79      14.90
H       8.01       1.23      12.13
C       8.05      -4.70       9.78
C       7.25       1.10      12.89
C       6.75      -0.19      13.17
C       7.76      -3.55      10.69
C       7.08      -2.66      12.84
