408

C      16.26       2.78      34.89
C      17.60       2.63      35.34
C      18.03       3.32      36.51
C      17.17       4.26      37.11
C      15.87       4.49      36.61
C      15.38       3.67      35.56
C      18.50       1.84      34.59
C      14.04       3.77      35.11
C      15.85       2.14      33.68
C      16.80       1.45      32.87
C      16.43       0.97      31.59
C      15.09       1.07      31.19
C      14.12       1.69      31.99
C      14.50       2.27      33.23
C      18.12       1.30      33.36
C      13.60       3.05      33.99
C       4.74       2.75      10.08
C       3.94       1.66      10.52
C       4.31       0.93      11.67
C       5.55       1.19      12.28
C       6.40       2.21      11.81
C       5.95       3.06      10.76
C       2.81       1.29       9.75
C       6.71       4.17      10.33
C       4.41       3.43       8.87
C       3.34       2.96       8.05
C       3.13       3.52       6.77
C       3.88       4.64       6.38
C       4.90       5.17       7.21
C       5.20       4.54       8.44
C       2.54       1.89       8.52
C       6.31       4.93       9.22
C      10.39      12.65      22.47
C       9.86      13.89      22.93
C       9.05      13.91      24.09
C       8.66      12.70      24.69
C       9.11      11.46      24.20
C      10.06      11.44      23.15
C      10.10      15.06      22.18
C      10.64      10.23      22.70
C      11.15      12.61      21.26
C      11.28      13.78      20.46
C      11.87      13.69      19.17
C      12.45      12.48      18.77
C      12.39      11.33      19.58
C      11.70      11.37      20.81
C      10.75      15.00      20.94
C      11.48      10.20      21.58
C      -6.23      14.07      34.82
C      -7.60      14.03      35.21
C      12.12      13.65      36.53
C      -6.95      13.26       0.22
C      -5.59      13.25      37.06
C      -5.22      13.72      35.77
C      11.48      14.38      34.26
C      -3.87      13.87      35.39
C      -5.87      14.48      33.50
C      -6.89      14.76      32.54
C      -6.53      15.08      31.21
C      -5.18      15.20      30.87
C      -4.16      15.12      31.85
C      -4.50      14.65      33.15
C      -8.24      14.71      32.95
C      -3.51      14.36      34.12
C       5.84      16.57      10.10
C      16.48       0.42      10.48
C      16.25       0.95      11.78
C      15.38       0.29      12.65
C       4.69      16.47      12.29
C       4.98      15.89      11.02
C      17.32       1.09       9.56
C       4.44      14.64      10.64
C       6.10      16.01       8.81
C       6.91      16.73       7.88
C       7.14      16.19       6.58
C       6.63      14.92       6.27
C       5.87      14.17       7.19
C       5.58      14.73       8.46
C      17.52       0.57       8.27
C       4.76      14.06       9.40
C       1.80       4.87      22.42
C       2.52       3.71      22.80
C       3.05       3.60      24.11
C       2.90       4.67      25.01
C       2.21       5.85      24.64
C       1.61       5.93      23.36
C       2.70       2.67      21.85
C       0.80       7.03      22.98
C       1.25       4.98      21.10
C       1.51       3.95      20.14
C       1.05       4.10      18.81
C       0.29       5.23      18.47
C      -0.14       6.16      19.44
C       0.42       6.09      20.75
C       2.22       2.80      20.54
C       0.19       7.09      21.72
C      -4.71      10.54       0.56
C      14.28       9.72       0.95
C      14.12       8.42       0.39
C      15.04       7.93      36.64
C      -3.97       8.78      36.24
C      -3.80      10.06      36.80
C      12.17       8.07       1.75
C      12.34       9.35       2.31
C      11.06       7.19       2.15
C      -4.37      11.72       1.21
C      15.03       6.64      36.15
C       1.89      17.03      12.99
C      11.73       1.00      13.37
C      10.67       1.77      12.81
C       9.80       1.19      11.85
C      -0.01      17.23      11.46
C       1.02      16.47      12.03
C      11.31       3.65      14.16
C      12.35       2.88      14.72
C      11.09       5.05      14.55
C       2.73      16.17      13.67
C       8.67       1.82      11.36
C       4.12       7.98      25.34
C       5.38       7.47      25.74
C       6.58       7.98      25.19
C       6.53       9.02      24.22
C       5.27       9.50      23.81
C       4.08       9.00      24.36
C       7.86       6.49      26.56
C       6.66       5.98      27.11
C       9.18       5.98      26.97
C       2.92       7.68      25.98
C       7.65       9.67      23.73
C       5.88       8.10       5.56
C       4.76       8.70       4.95
C       4.57      10.11       5.04
C       5.50      10.91       5.75
C       6.65      10.29       6.30
C       6.83       8.90       6.23
C       2.51       9.90       3.82
C       2.70       8.51       3.74
C       1.32      10.55       3.24
C       5.90       6.73       5.74
C       5.36      12.28       5.84
C      11.01       1.25      30.42
C       0.78      17.33      29.90
C      -0.47      16.66      30.09
C      -1.51      17.31      30.80
C       8.73       1.26      31.26
C       9.96       1.90      31.08
C       0.40      14.74      28.94
C       1.63      15.40      28.76
C       0.18      13.37      28.44
C      12.28       1.77      30.50
C      -2.75      16.76      30.99
C      14.33       8.88      17.99
C      -4.53       9.40      17.46
C      -3.31       8.68      17.63
C      -3.32       7.45      18.32
C      15.53       6.93      18.80
C      14.33       7.64      18.65
C      -2.13      10.42      16.47
C      -3.34      11.13      16.32
C      -0.86      10.96      15.95
C      13.22       9.69      18.08
C      -2.21       6.65      18.46
C      18.82       0.18       3.65
C      18.67       1.59       3.80
C      -1.05       2.47       2.74
C      -0.58       1.97       1.51
C      19.63       0.57       1.35
C       9.26      17.08       2.40
C      -1.62       4.36       4.12
C      -1.95       3.48       5.17
C      -1.74       5.82       4.26
C       8.47      16.64       4.64
C      -0.08       2.81       0.54
C       1.26       1.86      15.99
C       2.53       1.24      16.14
C       3.09       0.47      15.08
C       2.40       0.32      13.87
C       1.13       0.93      13.72
C       0.57       1.68      14.77
C      -5.02      17.36      16.44
C       4.45       0.73      17.49
C      -3.70      16.72      16.57
C       0.68       2.64      16.98
C      -7.17      16.86      12.88
C      -8.61      16.01      28.40
C      10.27      15.25      28.57
C       9.31      15.16      27.53
C       9.52      15.83      26.31
C      -9.37      16.60      26.14
C      -8.42      16.68      27.17
C       7.92      13.78      28.92
C       8.87      13.88      29.96
C       6.68      12.99      29.07
C      -7.63      16.12      29.38
C       8.54      15.87      25.34
C       2.08       1.37       4.14
C      -7.80      17.35       4.21
C      -7.28      16.62       3.10
C      -6.93      17.31       1.91
C       2.96       1.34       1.86
C       2.46       2.04       2.96
C      -7.40      14.59       4.37
C      -7.92      15.31       5.46
C      -7.15      13.14       4.47
C       1.77       2.10       5.28
C      -6.43      16.70       0.88
C      10.61      15.74      16.57
C       9.30      16.28      16.63
C       8.42      16.17      15.52
C       8.85      15.53      14.34
C      10.15      14.97      14.28
C      11.01      15.07      15.39
C       6.69      17.25      16.80
C       7.58      17.36      17.89
C      15.34       0.35      16.90
C      -8.69      15.63      17.70
C       8.06      15.38      13.31
C      18.83       1.04      28.97
C      -0.09       1.88      29.02
C       0.26       2.69      27.90
C      -0.54       2.65      26.73
C      18.39       1.83      26.69
C      18.04       1.04      27.80
C       2.09       3.61      29.15
C       1.75       2.79      30.25
C       3.21       4.56      29.24
C      18.35       0.45      30.12
C      -0.27       3.40      25.69
H      -2.51       4.89       0.60
H      14.83       0.71      30.26
H      18.82       0.77      32.83
H      -0.60       1.71      34.89
H      12.63       3.18      33.68
H      13.37       4.37      35.60
H       5.90       0.53      12.98
H       3.72       5.05       5.46
H       1.74       1.56       7.99
H       2.20       0.51      10.04
H       6.91       5.70       8.92
H       7.56       4.45      10.83
H       7.92      12.73      25.40
H      12.89      12.43      17.84
H      10.86      15.87      20.42
H       9.73      15.97      22.48
H      11.84       9.30      21.27
H      10.45       9.35      23.18
H      -7.22      12.99       1.17
H      -4.93      15.46      29.91
H      11.07      14.94      32.29
H      10.48      14.37      34.50
H      -2.52      14.45      33.89
H      -3.11      13.64      36.04
H      15.23       0.67      13.59
H       6.83      14.52       5.35
H      18.14       1.09       7.64
H      17.78       1.97       9.80
H       4.35      13.15       9.17
H       3.83      14.12      11.26
H       3.28       4.57      25.95
H      -0.04       5.33      17.50
H       2.39       2.03      19.89
H       3.21       1.81      22.10
H      -0.38       7.90      21.49
H       0.63       7.80      23.63
H      11.70       9.71       3.01
H      -2.99      10.61      36.52
H      -3.27       8.45      35.57
H      11.10       6.24       1.62
H      10.11       7.67       1.94
H      11.12       6.98       3.23
H      -5.04      12.32       1.64
H      15.15       6.52      35.17
H      12.98       3.27      15.43
H       1.10      15.48      11.76
H      -0.65      16.77      10.80
H      10.24       5.48      14.01
H      11.97       5.65      14.34
H      10.88       5.10      15.62
H       3.62      16.42      14.07
H       8.51       1.77      10.37
H       6.67       5.25      27.82
H       3.19       9.42      24.08
H       5.20      10.27      23.13
H       9.98       6.49      26.44
H       9.25       4.91      26.76
H       9.32       6.14      28.04
H       2.77       6.80      26.43
H       7.70       9.84      22.75
H       2.02       7.90       3.27
H       7.63       8.48       6.70
H       7.36      10.84       6.79
H       1.34      11.63       3.40
H       0.41      10.14       3.70
H       1.28      10.37       2.16
H       5.90       6.14       4.94
H       5.20      12.79       5.00
H       2.41      14.95      28.28
H      10.09       2.83      31.50
H       7.99       1.75      31.77
H      -0.82      13.02      28.67
H       0.90      12.69      28.90
H       0.32      13.34      27.35
H      12.80       1.93      29.66
H      -3.53      17.34      30.77
H      -3.37      12.04      15.85
H      13.47       7.27      19.07
H      15.49       6.03      19.30
H      -0.03      10.28      16.17
H      -0.65      11.92      16.42
H      -0.93      11.10      14.87
H      12.82      10.06      17.25
H      -2.30       5.72      18.11
H      17.78       3.83       6.07
H       9.38      16.07       2.25
H      -0.06       0.18       0.49
H      -1.44       6.33       3.34
H      -1.10       6.17       5.08
H      -2.77       6.09       4.48
H       8.79      15.70       4.55
H       0.89       3.02       0.57
H       4.93       0.84      18.39
H      -0.35       2.11      14.62
H       0.59       0.80      12.86
H      -3.44      16.19      15.65
H      -3.72      15.99      17.38
H       7.09       0.09      16.77
H      -0.31       2.78      16.98
H      -7.48      15.92      12.90
H       8.73      13.41      30.86
H      -7.58      17.25      27.01
H      -9.21      17.12      25.27
H       6.08      13.03      28.17
H       6.09      13.39      29.90
H       6.93      11.95      29.28
H      -7.01      16.91      29.37
H       7.88      16.61      25.38
H      -8.16      14.85       6.34
H       2.40       3.07       2.90
H       3.24       1.86       1.02
H      -6.70      12.76       3.55
H      11.98      12.61       4.64
H      -6.46      12.94       5.29
H       0.97       1.90       5.82
H      -6.07      16.27       0.14
H      17.33       0.41      18.77
H      -8.14      14.62      15.33
H      10.47      14.47      13.45
H      14.79       0.15      15.98
H      15.33       1.42      17.08
H       4.79      17.22      17.72
H      -8.47      16.42      18.26
H       7.52      15.27      12.57
H       2.27       2.82      31.12
H      17.18       0.49      27.76
H      17.78       1.81      25.87
H       3.30       5.15      28.32
H       4.15       4.02      29.39
H       3.06       5.25      30.07
H       8.88      17.22      30.67
H      -0.11       3.93      24.96
N      15.40       5.69      36.94
N      -0.75       3.38      36.82
N      12.85       1.61      31.63
N      17.27       0.95      30.57
N       7.68       2.02      12.15
N      -6.33      17.16      11.96
N       5.41       6.34       6.86
N       2.73       2.81       5.74
N       8.30      10.45      24.53
N       8.37      15.01      24.41
N      13.09      10.27      19.21
N      11.49      14.44      18.16
N      -4.59      12.94       0.82
N      10.93      13.66      36.94
N      -2.95      15.62      31.57
N      -7.44      15.20      30.25
N       3.89      15.75      13.23
N      16.81       2.00      12.19
N       5.67      12.88       6.93
N       7.68      16.92       5.61
N       1.98       6.86      25.62
N       3.65       2.57      24.52
N      -1.18       6.97      19.17
N       1.40       3.26      17.85
N      13.07       7.66       0.82
N      13.38      10.12       1.89
N      10.52       3.06      13.23
N      12.51       1.59      14.31
N       7.76       7.47      25.62
N       5.48       6.49      26.69
N       3.45      10.64       4.47
N       3.81       7.97       4.31
N      -0.59      15.40      29.60
N       1.77      16.66      29.25
N      -2.17       9.23      17.12
N      -4.48      10.60      16.82
N      -1.18       3.81       2.96
N      18.24       2.15       4.97
N      -5.73      17.27      15.29
N       3.25       1.31      17.30
N       8.18      14.43      27.76
N       9.99      14.60      29.74
N      -7.10      15.28       3.24
N      -8.09      16.65       5.34
N       7.15      16.66      15.66
N       8.84      16.87      17.76
N       1.33       3.52      28.03
N       0.67       1.97      30.14
