22

O      16.66       9.07      12.55
O      16.81       8.00      10.53
O      11.06      10.04       8.40
O      12.59       8.56       7.59
H      14.66       8.18       9.08
H      11.18      11.47      10.05
H      10.84      13.06      11.75
H      12.08      13.38      13.71
H      14.03      12.29      14.41
H      15.26      10.61      13.31
C      16.21       8.76      11.39
C      14.91       9.30      10.97
C      14.28       8.91       9.78
C      13.06       9.61       9.62
C      12.92      10.52      10.72
C      14.09      10.30      11.60
C      11.91      11.46      10.86
C      11.71      12.40      11.88
C      12.46      12.61      13.04
C      13.63      11.95      13.45
C      14.36      10.95      12.81
C      12.18       9.40       8.47
