22

O      14.42       1.02       2.98
O      15.12       2.42       4.64
O      10.57       6.89       3.52
O      12.39       6.86       4.89
C      14.33       2.11       3.68
C      13.25       3.05       3.38
C      13.12       4.30       4.03
C      12.00       5.00       3.53
C      11.37       4.17       2.54
C      12.17       2.94       2.43
C      10.23       4.50       1.80
C       9.56       3.75       0.83
H      13.78       4.66       4.80
C      10.92       1.64       0.67
C      11.95       1.85       1.59
C       9.85       2.48       0.33
H      10.96       0.69       0.13
H      12.69       1.05       1.67
H       9.16       2.08      -0.41
H       8.67       4.23       0.40
C      11.62       6.33       4.01
H       9.81       5.48       2.03
