22

C       8.26      10.18      17.13
C       8.18      10.94      15.86
C       7.47       9.10      17.51
C       6.44       8.46      16.82
C       5.92       8.75      15.55
C       6.30       9.76      14.66
C       7.30      10.72      14.80
C       9.71      10.47      19.28
H      10.58      12.55      17.53
H       7.70       8.70      18.50
H       5.96       7.63      17.34
H       5.10       8.10      15.21
H       5.74       9.80      13.73
H       7.42      11.42      13.97
O       8.74      13.13      13.90
O      10.34      13.92      15.30
O       9.28       9.37      19.79
O      10.50      11.31      19.86
C       9.43      13.07      14.99
C       9.16      11.99      15.94
C       9.80      11.89      17.19
C       9.28      10.81      17.92
