352

K      -4.47       6.46      17.54
K       0.33       6.02       2.18
K       2.89       7.81       0.56
K      10.53      14.57      12.19
K      10.94      14.14       7.73
K       8.38      15.93       9.35
K      13.13       9.77       2.28
K       8.33      10.20      17.64
K       5.77       8.41      19.26
K      -1.87       1.66       7.63
K      -2.27       2.09      12.09
K       0.29       0.30      10.47
H      -2.25       1.32      19.20
H      -0.33       1.97      18.05
H       0.08       4.23      17.71
H      -1.38       5.83      18.52
H       0.74       3.42       1.14
H       8.57       2.14      18.54
H       7.59       2.61      19.71
H       8.39       3.70      18.85
H       1.69       1.36       1.73
H       0.11       1.22       1.54
H       1.11       0.69       0.40
H       5.15       6.32      13.56
H       6.76       7.19      12.14
H       8.61       8.30      13.05
H       8.81       8.55      15.36
H       4.75       6.98      16.94
H       3.01       5.60      16.29
H       3.23       6.71      15.16
H       3.77       5.22      14.93
H       5.74       4.39      16.27
H       6.39       5.34      17.38
H       4.92       4.74      17.60
H       0.47      10.40      16.20
H       0.35      12.28      17.59
H      -1.39      12.49      19.11
H      -3.00      10.84      19.25
H      -1.84       7.62      16.33
H       0.06       6.72      15.44
H       0.35       7.28      16.92
H       0.84       8.11      15.64
H      -2.49       8.94      14.58
H      -1.57       7.76      14.03
H      -0.97       9.23      14.18
H       8.52       3.65      14.14
H       8.06       5.16      14.45
H      -3.21       3.39      16.85
H      -3.78       2.59      15.58
H      -2.08       4.88      15.43
H      -1.62       3.38      15.12
H       9.65       5.12      12.70
H      -3.65       5.94      13.96
H       6.23       5.96       0.39
H       6.86       6.96       1.46
H       6.36       9.30       1.31
H       5.40       9.82       0.14
H       8.31       9.44      10.52
H       6.39      10.08      11.68
H       5.98      12.35      12.02
H       7.44      13.94      11.21
H      10.53      11.53       8.77
H      -2.51      10.25      11.19
H      -1.53      10.73      10.02
H      -2.33      11.81      10.88
H       9.57       9.47       8.18
H      11.15       9.33       8.37
H      10.16       8.81       9.51
H       0.92      14.43      16.17
H      -0.70      15.31      17.59
H      -2.55       0.19      16.68
H      -2.75       0.43      14.37
H       1.31      15.10      12.79
H       3.05      13.71      13.44
H       2.83      14.82      14.57
H       2.29      13.33      14.79
H       0.32      12.50      13.46
H      -0.33      13.46      12.35
H       1.14      12.85      12.13
H       5.60       2.29      13.53
H       5.71       4.17      12.14
H       7.45       4.37      10.62
H       9.06       2.72      10.48
H       7.90      15.73      13.40
H       6.00      14.84      14.28
H       5.71      15.39      12.81
H       5.22      16.22      14.09
H       8.55       0.83      15.15
H       7.63      15.87      15.70
H       7.03       1.12      15.55
H      -2.46      11.77      15.59
H      -2.00      13.27      15.28
H       9.27      11.50      12.88
H       9.84      10.71      14.15
H       8.14      12.99      14.30
H       7.68      11.49      14.61
H      -3.59      13.23      17.03
H       9.71      14.06      15.77
H       5.04      14.07       9.52
H       4.41      15.08       8.44
H       4.90       1.18       8.60
H       5.87       1.70       9.77
H      10.91      14.90       0.61
H       9.00      14.26       1.77
H       8.58      11.99       2.11
H      10.05      10.40       1.30
H       7.93      12.81      18.68
H       0.09      14.09       1.28
H       1.07      13.62       0.11
H       0.28      12.53       0.97
H       6.97      14.87      18.09
H       8.55      15.01      18.28
H       7.56      15.54      19.42
H       3.52       9.91       6.26
H       1.90       9.04       7.68
H       0.05       7.92       6.77
H      -0.14       7.68       4.46
H       3.91       9.25       2.88
H       5.65      10.63       3.53
H       5.43       9.52       4.66
H       4.89      11.01       4.89
H       2.92      11.84       3.55
H       2.27      10.89       2.44
H       3.74      11.49       2.22
H       8.20       5.82       3.62
H       8.31       3.95       2.23
H      10.05       3.74       0.71
H      11.66       5.39       0.57
H      10.50       8.61       3.49
H       8.60       9.51       4.37
H       8.31       8.95       2.90
H       7.82       8.12       4.18
H      11.16       7.28       5.24
H      10.24       8.47       5.79
H       9.63       7.00       5.64
H       0.14      12.58       5.68
H       0.60      11.07       5.37
H      11.87      12.84       2.97
H      12.45      13.63       4.24
H      10.74      11.35       4.39
H      10.28      12.85       4.70
H      -0.99      11.11       7.12
H      12.31      10.29       5.86
H       2.44      10.27      19.43
H       1.80       9.26      18.35
H       2.30       6.93      18.51
H       3.26       6.41      19.68
H       0.35       6.79       9.30
H       2.27       6.15       8.14
H       2.69       3.88       7.80
H       1.22       2.29       8.61
H      -1.87       4.70      11.05
H      11.17       5.97       8.63
H      10.19       5.50       9.80
H      10.99       4.41       8.94
H      -0.91       6.76      11.64
H      -2.49       6.89      11.45
H      -1.49       7.42      10.31
H       7.75       1.80       3.65
H       9.36       0.92       2.23
H      11.22      16.04       3.14
H      11.41      15.79       5.45
H       7.35       1.13       7.03
H       5.61       2.52       6.38
H       5.83       1.41       5.25
H       6.37       2.90       5.02
H       8.34       3.73       6.36
H       8.99       2.77       7.47
H       7.53       3.37       7.69
H       3.07      13.94       6.29
H       2.95      12.06       7.68
H       1.22      11.86       9.20
H      -0.40      13.50       9.34
H       0.76       0.50       6.42
H       2.67       1.39       5.54
H       2.95       0.84       7.01
H       3.44       0.01       5.73
H       0.11      15.40       4.67
H       1.03       0.36       4.12
H       1.63      15.11       4.27
H      11.12       4.46       4.23
H      10.67       2.96       4.54
H      -0.60       4.73       6.94
H      -1.18       5.52       5.67
H       0.52       3.24       5.52
H       0.99       4.74       5.21
H      12.25       2.99       2.79
H      -1.05       2.17       4.05
H       3.63       2.16      10.30
H       4.26       1.15      11.37
H       3.76      15.05      11.22
H       2.80      14.52      10.05
C      -2.73       4.56      19.39
C      -2.99       3.17      19.57
C      -2.08       2.25      19.07
C      -0.94       2.62      18.38
C      -0.69       3.96      18.18
C      -1.57       4.91      18.67
C       0.93       2.75       0.42
C       8.43       2.81      19.24
C       0.96       1.38       1.08
C       7.05       7.64      15.86
C       5.96       6.92      15.30
C       5.89       6.78      13.93
C       6.85       7.29      13.08
C       7.94       7.96      13.62
C       8.05       8.11      15.00
C       4.95       6.30      16.23
C       3.62       5.92      15.60
C       5.56       5.08      16.93
C      -2.28       9.60      17.79
C      -1.21       9.48      16.87
C      -0.25      10.48      16.82
C      -0.32      11.60      17.65
C      -1.34      11.73      18.54
C      -2.29      10.74      18.61
C      -1.16       8.25      15.97
C       0.13       7.53      16.00
C      -1.59       8.57      14.57
C       8.82       4.53      14.49
C      -3.51       3.49      15.91
C      -2.38       4.01      15.08
C       9.95       5.04      13.64
C       6.59       6.87       0.52
C       6.10       9.15       0.37
C       8.79      12.67      10.34
C       9.05      11.28      10.16
C       8.14      10.36      10.66
C       7.00      10.74      11.35
C       6.75      12.07      11.55
C       7.63      13.02      11.06
C      10.34      10.86       9.49
C      -2.37      10.92      10.49
C      10.30       9.50       8.83
C      -0.99      15.75      13.87
C       0.10      15.03      14.42
C       0.18      14.89      15.80
C      -0.79      15.41      16.65
C      -1.88      16.07      16.11
C      -1.98      16.22      14.73
C       1.11      14.42      13.50
C       2.44      14.04      14.13
C       0.51      13.20      12.80
C       8.34       1.48      11.94
C       7.27       1.37      12.86
C       6.31       2.37      12.91
C       6.38       3.49      12.08
C       7.40       3.61      11.18
C       8.35       2.63      11.11
C       7.22       0.14      13.76
C       5.93      15.64      13.73
C       7.65       0.46      15.16
C      -2.76      12.64      15.24
C       9.57      11.60      13.82
C       8.44      12.12      14.65
C      -3.89      13.15      16.09
C       4.68      14.99       9.39
C       5.17       1.04       9.54
C      11.39      11.67       0.43
C      11.65      13.06       0.25
C      10.74      13.98       0.75
C       9.60      13.61       1.44
C       9.36      12.27       1.64
C      10.23      11.32       1.15
C       7.73      13.48      19.40
C       0.23      13.42       0.58
C       7.70      14.84      18.74
C       1.61       8.59       3.96
C       2.70       9.31       4.51
C       2.78       9.45       5.89
C       1.82       8.94       6.74
C       0.73       8.27       6.20
C       0.62       8.12       4.82
C       3.71       9.92       3.59
C       5.04      10.30       4.22
C       3.11      11.15       2.89
C      10.94       6.63       2.03
C       9.87       6.75       2.95
C       8.92       5.74       3.00
C       8.98       4.62       2.17
C      10.00       4.50       1.27
C      10.96       5.48       1.20
C       9.82       7.97       3.85
C       8.53       8.70       3.82
C      10.25       7.65       5.25
C      -0.16      11.70       5.33
C      12.17      12.74       3.91
C      11.04      12.22       4.74
C      -1.29      11.19       6.18
C       2.08       9.36      19.30
C       2.57       7.08      19.45
C      -0.12       3.56       9.48
C      -0.38       4.95       9.66
C       0.52       5.86       9.16
C       1.67       5.49       8.47
C       1.91       4.15       8.27
C       1.04       3.21       8.76
C      -1.67       5.37      10.33
C      11.03       5.31       9.33
C      -1.64       6.73      10.99
C       9.65       0.48       5.95
C       8.57       1.20       5.39
C       8.49       1.34       4.02
C       9.45       0.82       3.17
C      10.54       0.16       3.71
C      10.65       0.00       5.09
C       7.55       1.81       6.32
C       6.23       2.19       5.69
C       8.16       3.03       7.02
C       0.33      14.74       7.88
C       1.39      14.86       6.96
C       2.35      13.86       6.91
C       2.29      12.74       7.74
C       1.27      12.61       8.64
C       0.31      13.60       8.70
C       1.44      16.09       6.06
C       2.74       0.59       6.09
C       1.02      15.77       4.66
C      11.43       3.59       4.58
C      -0.90       4.63       6.00
C       0.22       4.11       5.17
C      12.55       3.07       3.73
C       3.98       1.24      10.43
C       3.49      15.19      10.28
O       1.66       5.48       0.04
O       7.15       7.84      17.17
O      -3.21       8.68      17.88
O       9.26       4.38      15.85
O      -2.79       4.16      13.71
O       5.56       7.84       0.22
O       8.48       7.80      19.80
O       9.61      13.60       9.87
O      -1.09      15.95      12.56
O       9.27       0.57      11.85
O      -3.20      12.49      13.88
O       8.85      12.28      16.02
O       5.70      15.95       9.69
O      -2.42      15.91       9.93
O       7.00      10.75      19.78
O       1.52       8.39       2.65
O      11.87       7.55       1.94
O      -0.59      11.85       3.97
O      11.46      12.06       6.11
O       3.10       8.39      19.60
O       0.18       8.43       0.02
O      -0.94       2.63       9.95
O       9.75       0.27       7.26
O      -0.60      15.66       7.97
O      11.86       3.74       5.94
O      -0.19       3.95       3.80
O       2.96       0.28      10.13
O      11.08       0.32       9.89
