282

Cu      11.51      12.19       0.35
Cu       5.53      -6.44      11.36
Cu       6.44      17.32      10.39
Cu      10.60       5.25       9.32
Cu       1.36       6.07       9.82
Cu       0.46       1.17      20.47
Cu      -6.41      -0.34      20.22
Cu      -0.43      18.29       9.21
Cu      -1.34      -5.47      10.18
Cu      -5.50       6.61      11.26
Cu       3.74       5.79      10.75
Cu       4.64      10.69       0.10
H       5.30       2.93      17.73
H       5.06       4.33      15.67
H       8.90       2.92      14.30
H      -6.11       1.56      16.39
H       4.75       4.27      13.20
H       6.78       6.62      10.44
H       8.96       5.13      13.64
H       4.03      -2.86      19.02
H       3.15      -4.52      17.37
H       7.15      -5.18      15.92
H       8.02      -3.56      17.61
H       3.31      -7.10      16.69
H      -1.72      15.64      12.65
H       5.72      -4.89      13.85
H      10.37      -4.93      14.25
H      -5.10      -3.85      16.50
H      -1.26      -1.96      15.96
H      -1.04      -3.09      13.74
H      -5.41      -1.68      17.68
H       1.66      11.39       0.52
H      -1.20      -2.51      18.21
H       9.09      -3.16       8.59
H       8.22      -0.90       7.96
H      -3.02       0.67       8.13
H      -2.16      -1.61       8.70
H       8.38       0.97       6.09
H       8.44       4.96       7.24
H      10.78       2.33       9.42
H       0.20       1.99       9.16
H      -0.03      -0.50       8.98
H       3.81      -0.95      10.89
H       4.03       1.53      11.01
H      -0.34      -2.60      10.27
H      -3.40      17.57       9.61
H       3.88      -2.64       9.31
H      -1.06       6.00      13.55
H      -1.93       5.40      15.81
H       2.07       4.48      17.10
H       2.93       5.14      14.85
H      -1.78       6.10      18.37
H       3.36      14.98       0.68
H       0.64       2.54      17.89
H      -0.20       8.93       2.85
H       0.04       7.53       4.90
H      -3.80       8.94       6.27
H      11.21      10.29       4.19
H       0.35       7.59       7.38
H      -1.68       5.24      10.13
H      -3.86       6.73       6.93
H       1.07      14.72       1.56
H       1.95      16.38       3.20
H      -2.05      17.04       4.66
H      -2.92      15.41       2.97
H       1.79      18.95       3.88
H       6.82      -3.78       7.92
H      -0.62      16.75       6.73
H      -5.27      16.78       6.32
H      10.20      15.71       4.07
H       6.36      13.82       4.62
H       6.14      14.95       6.84
H      10.51      13.54       2.90
H       3.44       0.47      20.05
H       6.30      14.37       2.36
H      -3.99      15.01      11.98
H      -3.12      12.76      12.61
H       8.12      11.18      12.44
H       7.26      13.46      11.87
H      -3.28      10.89      14.49
H      -3.34       6.89      13.34
H      -5.68       9.52      11.16
H       4.90       9.87      11.41
H       5.13      12.36      11.59
H       1.29      12.81       9.68
H       1.07      10.33       9.56
H       5.44      14.45      10.30
H       8.50      -5.71      10.97
H       1.22      14.50      11.26
H       6.16       5.86       7.03
H       7.03       6.45       4.77
H       3.03       7.38       3.48
H       2.17       6.72       5.73
H       6.88       5.76       2.20
H       1.74      -3.12      19.89
H       4.46       9.31       2.69
C       7.37       1.37      18.43
C       7.22       2.17      17.18
C       6.07       2.94      16.96
C       5.94       3.71      15.81
C       6.97       3.72      14.85
C       8.12       2.93      15.06
C       8.24       2.17      16.21
C       6.87       4.55      13.63
C       5.69       4.73      12.90
C       6.80       6.04      11.37
C       8.00       5.20      13.14
C       6.62      -2.01      19.29
C       6.08      -3.09      18.39
C       4.71      -3.39      18.35
C       4.22      -4.32      17.42
C       5.09      -4.94      16.52
C       6.47      -4.67      16.59
C       6.95      -3.77      17.53
C       4.59      -5.84      15.46
C       3.68      -6.88      15.68
C       3.72      -7.46      13.48
C       5.04      -5.69      14.14
C      -2.79      -4.75      12.54
C      -2.94      -4.07      13.87
C      -4.10      -4.27      14.64
C      -4.22      -3.66      15.89
C      -3.20      -2.84      16.38
C      -2.05      -2.63      15.59
C      -1.92      -3.24      14.35
C      -3.29      -2.21      17.71
C      -4.47      -1.66      18.23
C      -3.37      -0.99      20.14
C      -2.16      -2.10      18.53
C      11.67      -3.83       9.18
C      11.14      -2.51       8.70
C       9.77      -2.32       8.47
C       9.29      -1.05       8.12
C      10.16       0.05       8.03
C      11.54      -0.16       8.24
C      12.02      -1.43       8.55
C       9.66       1.41       7.79
C       8.74       1.74       6.77
C       8.78       3.94       7.37
C      10.10       2.48       8.58
C       2.27       3.39      10.17
C       2.13       1.90      10.10
C       0.98       1.33       9.54
C       0.85      -0.06       9.45
C       1.88      -0.89       9.93
C       3.03      -0.31      10.50
C       3.15       1.07      10.58
C       1.79      -2.36       9.82
C       0.60      -3.08      10.02
C       1.71      -5.07       9.65
C       2.92      -3.12       9.50
C       1.52       5.83      12.67
C       0.99       5.59      14.05
C      -0.38       5.69      14.34
C      -0.87       5.35      15.60
C       0.01       4.88      16.60
C       1.38       4.81      16.32
C       1.87       5.18      15.07
C      -0.49       4.41      17.91
C      -1.41       5.12      18.70
C      -1.36       3.50      20.30
C      -0.04       3.19      18.44
C      -2.27      10.49       2.15
C      -2.12       9.69       3.40
C      -0.97       8.92       3.61
C      -0.84       8.15       4.76
C      -1.87       8.14       5.73
C      -3.02       8.92       5.52
C      -3.15       9.69       4.36
C      -1.77       7.31       6.94
C      -0.59       7.13       7.67
C      -1.70       5.82       9.21
C      -2.90       6.66       7.44
C      -1.52      13.87       1.28
C      -0.98      14.95       2.18
C       0.39      15.24       2.23
C       0.88      16.17       3.15
C       0.01      16.80       4.06
C      -1.37      16.53       3.98
C      -1.85      15.62       3.04
C       0.51      17.70       5.12
C       1.42      18.74       4.89
C       1.38      19.32       7.10
C       0.06      17.55       6.44
C       7.89      16.60       8.03
C       8.04      15.93       6.71
C       9.20      16.13       5.93
C       9.32      15.52       4.69
C       8.30      14.70       4.19
C       7.15      14.48       4.98
C       7.02      15.10       6.22
C       8.39      14.06       2.87
C       9.57      13.52       2.35
C       8.47      12.85       0.44
C       7.26      13.96       2.05
C      -6.57      15.69      11.39
C      -6.04      14.37      11.87
C      -4.67      14.17      12.10
C      -4.19      12.91      12.45
C      -5.06      11.81      12.54
C      -6.44      12.02      12.34
C      -6.92      13.29      12.02
C      -4.56      10.44      12.79
C      -3.65      10.12      13.80
C      -3.68       7.92      13.20
C      -5.00       9.38      12.00
C       2.83       8.47      10.40
C       2.97       9.96      10.48
C       4.12      10.53      11.04
C       4.25      11.91      11.12
C       3.22      12.75      10.65
C       2.07      12.17      10.08
C       1.95      10.79      10.00
C       3.31      14.21      10.76
C       4.50      14.94      10.55
C       3.39      16.92      10.93
C       2.18      14.97      11.07
C       3.58       6.03       7.90
C       4.11       6.27       6.52
C       5.48       6.17       6.24
C       5.97       6.50       4.97
C       5.09       6.98       3.97
C       3.71       7.04       4.25
C       3.23       6.68       5.51
C       5.59       7.45       2.67
C       6.51       6.73       1.88
C       6.46       8.35       0.27
C       5.14       8.66       2.14
I       6.14      -3.86      10.91
I      -4.03       4.35      11.77
I       1.08      -0.51      18.48
I      -1.04      15.72       9.66
I       9.13       7.51       8.81
I       4.02      12.37       2.10
N       5.66       5.47      11.78
N       7.98       5.93      12.00
N       3.23      -7.68      14.70
N       4.62      -6.51      13.15
N      -4.50      -1.07      19.43
N      -2.18      -1.49      19.73
N       8.29       2.99       6.57
N       9.68       3.75       8.36
N       0.57      -4.42       9.93
N       2.90      -4.46       9.43
N      -1.85       4.67      19.88
N      -0.45       2.74      19.64
N      -0.56       6.39       8.79
N      -2.88       5.92       8.57
N       1.87      19.54       5.88
N       0.48      18.37       7.43
N       9.60      12.93       1.14
N       7.28      13.35       0.85
N      -3.19       8.87      14.00
N      -4.58       8.11      12.21
N       4.53      16.28      10.65
N       2.20      16.32      11.14
N       6.95       7.19       0.69
N       5.55       9.11       0.93
O       6.37       1.35      19.23
O      -6.76       0.76      18.59
O       5.78      -1.30      19.94
O       7.89      -1.87      19.30
O      11.45      -5.42      12.12
O      -1.67      -4.59      11.95
O      10.83      -4.75       9.45
O      -2.31      -3.92       9.31
O       1.28       4.09       9.78
O       3.38       3.83      10.63
O       0.69       6.03      11.73
O       2.79       5.78      12.55
O      -1.27      10.51       1.35
O      11.86      11.09       1.98
O      -0.68      13.16       0.63
O      -2.79      13.72       1.27
O      -6.35      17.27       8.46
O       6.77      16.45       8.63
O      -5.73      16.61      11.12
O       7.41      15.77      11.26
O       3.82       7.77      10.80
O       1.72       8.03       9.95
O       4.41       5.83       8.84
O       2.30       6.08       8.03
