12

Ca       1.57       4.52       0.41
Ca       5.01       6.60      -0.41
O       2.35       3.58      -1.61
O       2.80       6.63      -1.04
O       0.64       6.19      -1.10
C       1.62       3.18      -2.56
O       4.23       7.54       1.61
C       1.70       6.62      -1.64
O       3.78       4.49       1.04
O      -0.64       4.93       1.10
C       4.96       7.94       2.56
C       4.88       4.50       1.64
