21

Mn       1.64       0.28       4.50
Mn       3.65       1.96       6.90
P      -1.56       1.16       4.90
C       3.11      -1.90       3.38
C       1.68      -2.39       3.63
C       1.68       2.69       2.84
C       2.53       3.03       4.07
C       2.30       4.06       8.13
C       3.63      -0.40       8.60
C       3.71       4.58       7.83
C       2.81      -0.82       7.36
O      -2.55       1.18       6.05
O      -0.10       0.97       5.38
O       3.38      -0.70       3.73
O       0.87      -1.55       4.13
O       1.23       1.52       2.73
O       2.66       2.06       4.91
O       2.04       2.87       7.77
O       4.01       0.78       8.71
O       4.51       3.77       7.25
O       2.60       0.13       6.52
