20

C      26.79      13.58       2.86
C      26.76      13.57       1.47
C      29.00      14.31       2.86
C      29.04      14.32       1.47
C      26.79      14.31      -2.86
C      26.76      14.32      -1.47
C      29.00      13.58      -2.86
C      29.04      13.57      -1.47
C      27.90      13.95      -0.74
C      27.90      13.95       0.74
N      27.90      13.95      -3.54
N      27.90      13.95       3.54
H      25.94      13.29       3.46
H      25.85      13.25       0.95
H      29.85      14.61       3.46
H      29.94      14.65       0.95
H      25.94      14.61      -3.46
H      25.85      14.65      -0.95
H      29.85      13.29      -3.46
H      29.94      13.25      -0.95
