20

C      11.09      27.54      12.84
C      12.48      27.53      12.80
C      11.09      28.25      15.05
C      12.48      28.26      15.09
C      16.80      28.27      12.85
C      15.41      28.28      12.81
C      16.80      27.53      15.05
C      15.41      27.51      15.09
C      14.69      27.90      13.95
C      13.21      27.90      13.95
N      17.49      27.90      13.95
N      10.41      27.90      13.95
H      10.48      27.25      11.99
H      12.99      27.21      11.90
H      10.48      28.54      15.91
H      12.99      28.59      16.00
H      17.41      28.56      11.99
H      14.90      28.61      11.91
H      17.41      27.23      15.90
H      14.90      27.18      15.99
