48

H       3.02      16.99       4.85
H       4.77      18.76       4.83
H       6.97      19.16       5.23
H       4.82      24.87      10.90
H       4.81      23.12       9.13
H       5.22      20.93       8.73
H       8.73      22.68       6.97
H       9.14      23.06       4.77
H      10.90      23.04       3.02
C       6.97      19.93       5.99
C       5.99      20.92       7.96
C       7.96      21.91       6.97
H       3.04      16.98       9.13
H       4.81      18.73       9.14
C       3.42      17.38       5.78
C       4.41      18.36       5.78
H       9.17      18.76       4.81
H      10.91      18.76       3.04
H       9.10      24.86      10.92
H       9.12      23.09       9.17
C       5.75      24.47      10.52
C       5.76      23.48       9.53
C      10.52      22.11       3.42
C       9.54      22.12       4.41
O       1.42      15.41       8.11
O       8.11      26.44      12.49
C       1.85      15.82       6.98
C       2.92      16.88       6.99
C       4.92      18.87       6.98
C       5.97      19.92       6.98
O      12.48      19.79       1.42
C       3.42      17.38       8.20
C       4.41      18.36       8.19
O       1.46      15.41       5.84
O      12.49      22.06       1.46
C       6.97      26.03      12.09
C       6.96      24.97      11.02
C       6.97      22.98       9.02
C       6.97      21.93       7.97
C       8.17      24.47      10.52
C       8.17      23.49       9.53
O       5.84      26.44      12.51
C       9.53      19.70       4.41
C      10.51      19.70       3.42
C      11.02      20.90       2.92
C       9.02      20.91       4.93
C       7.97      20.92       5.98
C      12.08      20.92       1.85
