48

O      22.06       1.46      15.41
C      22.12       3.43      17.37
H      18.72       9.12      23.09
H      16.96       9.10      24.85
C      22.12       4.42      18.36
C      26.02      12.09      20.93
C      24.97      11.03      20.94
C      22.97       9.02      20.93
C      21.92       7.97      20.93
H      18.77       3.04      16.98
H      18.76       4.82      18.72
C      18.36       5.75      23.48
C      17.37       5.75      24.46
C      20.92       1.86      15.82
C      20.91       2.92      16.87
C      20.91       4.93      18.87
C      20.92       5.98      19.92
C      15.80       6.97      26.03
C      16.86       6.96      24.97
C      18.87       6.96      22.97
C      19.92       6.97      21.92
C      24.46      10.52      19.73
C      23.48       9.53      19.73
H      20.92       8.72      22.68
H      22.67       6.98      19.17
H      19.16       5.22      20.92
C      18.36       8.17      23.49
C      17.37       8.16      24.47
C      19.70       3.43      17.38
C      19.70       4.42      18.36
C      20.92       7.95      21.91
C      21.91       6.98      19.94
C      19.93       5.99      20.92
H      24.86      10.91      23.08
H      23.11       9.13      23.09
H      23.05       3.02      16.99
H      23.07       4.78      18.75
H      16.99       4.81      24.86
H      18.76       4.81      23.12
O      26.43      12.49      19.78
O      19.79       1.43      15.41
O      15.41       8.11      26.44
C      24.46      10.52      22.15
O      26.43      12.51      22.06
H      24.85      10.93      18.80
H      23.09       9.17      18.78
O      15.36       5.84      26.43
C      23.48       9.53      22.14
