116

Sr       6.25       7.42       0.00
Sr       4.32       0.00       7.42
Sr       9.61       0.00       7.42
Sr       0.97       7.42       0.00
Li       3.76       6.62       2.27
Li       3.76       8.23      12.58
Li       6.81       2.27       8.23
Li       6.81      12.58       6.62
Li       1.53       0.81       9.69
Li       1.53      14.04       5.16
Li       9.04       5.16       0.81
Li       9.04       9.69      14.04
H       4.68       2.72       5.38
H       8.21       2.99       3.01
H       4.68      12.13       9.47
H       8.21      11.86      11.83
H       5.89       5.38      12.13
H       2.36       3.01      11.86
H       5.89       9.47       2.72
H       2.36      11.83       2.99
H       0.60       4.71      12.80
H       7.64       4.43      10.44
H       0.60      10.14       2.05
H       7.64      10.42       4.41
H       9.97       2.05       4.71
H       2.93       4.41       4.43
H       9.97      12.80      10.14
H       2.93      10.44      10.42
C       6.26       4.97       1.88
C       6.21       4.00       2.99
C       7.22       3.11       3.42
C       6.68       2.48       4.54
C       7.27       1.57       5.54
C       6.26       9.87      12.97
C       6.21      10.85      11.86
C       7.22      11.74      11.43
C       6.68      12.37      10.31
C       7.27      13.28       9.31
C       4.31       1.88       9.87
C       4.36       2.99      10.85
C       3.36       3.42      11.74
C       3.89       4.54      12.37
C       3.30       5.54      13.28
C       4.31      12.97       4.97
C       4.36      11.86       4.00
C       3.36      11.43       3.11
C       3.89      10.31       2.48
C       3.30       9.31       1.57
C       9.60       2.45       9.31
C       9.64       3.42      10.41
C       8.64       4.32      10.84
C       9.18       4.95      11.96
C       8.59       5.86      12.96
C       9.60      12.40       5.54
C       9.64      11.43       4.44
C       8.64      10.53       4.01
C       9.18       9.90       2.89
C       8.59       8.99       1.89
C       0.97       5.54       2.45
C       0.93       4.44       3.42
C       1.93       4.01       4.32
C       1.39       2.89       4.95
C       1.98       1.89       5.86
C       0.97       9.31      12.40
C       0.93      10.41      11.43
C       1.93      10.84      10.53
C       1.39      11.96       9.90
C       1.98      12.96       8.99
N       5.42       3.01       4.70
N       5.11       3.93       3.78
N       5.42      11.84      10.15
N       5.11      10.92      11.07
N       5.15       4.70      11.84
N       5.46       3.78      10.92
N       5.15      10.15       3.01
N       5.46      11.07       3.93
N      10.44       4.42      12.13
N       0.17       3.50      11.21
N      10.44      10.43       2.72
N       0.17      11.35       3.64
N       0.13       2.72       4.42
N      10.40       3.64       3.50
N       0.13      12.13      10.43
N      10.40      11.21      11.35
O       5.29       5.80       1.75
O       7.25       5.00       1.09
O       6.53       1.28       6.55
O       8.47       1.15       5.40
O       5.29       9.05      13.10
O       7.25       9.85      13.76
O       6.53      13.57       8.29
O       8.47      13.69       9.45
O       5.28       1.75       9.05
O       3.32       1.09       9.85
O       4.04       6.55      13.57
O       2.11       5.40      13.69
O       5.28      13.10       5.80
O       3.32      13.76       5.00
O       4.04       8.29       1.28
O       2.11       9.45       1.15
O      10.56       1.62       9.17
O       8.60       2.43       8.51
O       9.32       6.14      13.98
O       7.39       6.27      12.82
O      10.56      13.23       5.68
O       8.60      12.42       6.34
O       9.32       8.71       0.87
O       7.39       8.58       2.03
O       0.01       5.68       1.62
O       1.97       6.34       2.43
O       1.25       0.87       6.14
O       3.18       2.03       6.27
O       0.01       9.17      13.23
O       1.97       8.51      12.42
O       1.25      13.98       8.71
O       3.18      12.82       8.58
