16

H       5.05       1.57      10.08
C       5.03       1.03       9.14
H       5.05      -0.89      10.09
C       4.99       1.03       6.70
C       5.03      -0.35       9.15
C       4.98      -0.35       6.71
H       4.96      -0.89       5.77
H       4.97       1.57       5.76
O       6.17       3.68       7.92
O       3.87      -3.00       7.92
O       6.16      -3.00       7.92
O       3.88       3.68       7.92
C       5.01      -1.01       7.93
C       5.02       1.69       7.92
C       5.02       3.09       7.93
C       5.01      -2.41       7.92
