16

C      12.36       7.66       3.30
C      11.21       9.83       3.78
C      11.09      11.03       4.47
C      11.86      12.60       6.25
H      13.98      10.89       6.29
H      14.20       8.75       5.00
H      10.43       9.51       3.09
H      10.21      11.65       4.32
C      12.08      11.41       5.40
C      13.21      10.59       5.58
C      13.34       9.40       4.87
C      12.32       9.00       3.99
O      12.57      12.77       7.30
O      10.92      13.44       5.99
O      11.33       7.39       2.59
O      13.36       6.90       3.48
