16

C      20.39      10.55      11.74
C      21.66       9.97      11.91
H      21.79       9.16      12.62
H      23.75      10.03      11.32
H      21.20      12.94       9.45
H      19.24      12.06      10.68
C      22.75      10.46      11.19
C      22.59      11.54      10.32
C      21.31      12.10      10.13
C      20.22      11.60      10.83
C      19.25      10.13      12.59
C      23.76      12.17       9.63
O      19.46       9.43      13.64
O      18.05      10.50      12.32
O      23.48      13.21       8.92
O      24.92      11.68       9.79
