13

C      16.82       6.39       6.39
C      17.08       6.39      10.56
C      19.03       2.08       8.34
C      18.74       5.33       6.30
C      14.87       2.08       8.61
Co      16.95       4.23       8.47
C      15.17       5.31      10.66
C      19.13       3.15      10.26
C      14.77       3.15       6.69
N      17.52       5.38       6.97
N      16.38       5.38       9.98
N      18.46       3.09       9.04
N      15.45       3.08       7.91
