13

C      16.82      10.55      10.56
Co      16.95       8.47      12.71
C      17.08       6.39      10.56
N      17.52       9.97      11.57
N      16.38       6.96      11.57
N      18.46       7.90      13.86
N      15.44       9.03      13.86
C      19.04       8.60      14.87
C      14.87       8.33      14.87
C      18.74      10.64      11.63
C      15.17       6.28      11.63
C      19.13       6.68      13.80
C      14.77      10.25      13.80
