13

Co      12.71      -0.00       8.47
C      10.56       0.13       6.39
C      10.56      -0.14      10.56
N      13.86      -1.51       9.04
C      14.87      -2.08       8.34
N      13.86       1.50       7.91
C      14.87       2.08       8.61
N      11.56      -0.57       6.97
N      11.56       0.57       9.98
C      13.80      -2.18      10.26
C      13.80       2.18       6.69
C      11.62      -1.79       6.30
C      11.62       1.78      10.65
