13

N       9.05      15.43      13.86
N       7.91      18.45      13.86
C       6.40      17.08      10.56
C       6.30      15.16      11.62
C      10.56      16.81      10.56
C      10.66      18.72      11.63
Co       8.48      16.94      12.71
C       8.35      14.86      14.87
C       8.61      19.02      14.87
C      10.27      14.76      13.80
C       6.70      19.12      13.80
N       6.98      16.37      11.56
N       9.99      17.51      11.57
