26

C       4.10       2.90       0.96
C       4.34       1.53       1.07
C       4.59       0.73      -0.06
C       4.59       1.37      -1.32
C       4.36       2.74      -1.43
H       5.50      -3.51      -1.84
H       5.08      -1.09      -2.06
C       5.53      -5.00       0.42
H       5.05      -3.22       2.41
C       5.30      -3.53       0.30
C       5.31      -2.90      -0.96
C       5.07      -1.53      -1.07
C       4.82      -0.73       0.06
C       4.82      -1.37       1.32
C       5.05      -2.74       1.43
H       4.63      -0.80       2.22
O       5.84      -5.69      -0.60
O       5.38      -5.52       1.59
O       3.57       5.69       0.60
O       4.03       5.52      -1.59
H       3.90       3.51       1.84
H       4.33       1.09       2.06
H       4.78       0.80      -2.22
H       4.35       3.22      -2.41
C       3.87       5.00      -0.42
C       4.10       3.53      -0.30
