21

H       7.41       2.01       5.60
H       3.40       3.45       6.07
H       0.96       4.49       3.76
C       5.56       2.58       7.41
C       6.51       2.44       5.17
C       6.39       2.47       3.79
C       5.23       3.04       3.21
C       4.10       3.30       4.03
C       4.24       3.25       5.42
C       5.46       2.87       5.99
C       5.40       3.73       1.92
C       2.74       3.58       3.49
N       7.46       1.94       2.99
O       4.53       2.14       8.01
O       6.72       2.43       7.88
O       4.40       4.32       1.39
O       6.59       3.95       1.52
O       8.70       2.11       3.35
O       7.20       1.28       1.90
O       2.37       3.05       2.45
O       1.86       4.39       4.21
