16

C      -2.14       8.34       7.44
O      -1.22       7.67       8.01
O      -2.57       9.43       7.90
C      -2.54       9.22       5.20
C      -2.64       9.06       3.84
C      -2.63       7.78       3.28
C      -2.40       6.66       4.10
C      -2.26       6.82       5.48
C      -2.39       8.10       6.03
O      -3.94       8.54       1.52
O      -3.16       6.46       1.42
C      -3.20       7.61       1.96
H      -2.57      10.23       5.60
H      -2.80       9.94       3.22
H      -2.40       5.66       3.69
H      -2.09       5.96       6.10
