16

O       1.52       7.36       7.88
C       2.23       8.29       7.41
C       1.54       7.65       5.17
C       1.72       7.61       3.80
O       2.37       9.42       7.99
C       3.86       8.74       4.09
C       3.66       8.80       5.46
C       2.52       8.21       6.00
C       2.91       8.11       3.26
O       4.25       8.33       1.39
O       2.84       6.60       1.49
C       3.28       7.71       1.92
H       0.62       7.24       5.57
H       0.98       7.13       3.18
H       4.79       9.12       3.68
H       4.40       9.27       6.09
