14

Cd      10.76       6.38       3.50
N      12.41       5.97       1.92
C      12.05       5.29       6.25
C      13.04       4.00       4.81
N      12.05       4.96       4.97
O      11.56       8.10       4.78
C      13.70       5.75       2.17
N       9.05       6.22       5.11
C      12.17       5.53       0.62
C       8.35       5.88       1.61
O       9.27       6.74       1.86
C       8.40       5.16       5.73
C      11.47       9.20       4.13
C       8.51       7.33       5.60
