24

C       4.04       3.97       8.25
Cd       2.88      -1.92      10.40
Cd       4.38       1.27       7.51
C       5.08       0.11      10.81
N       4.90       2.16       5.41
N       1.47      -0.18      10.87
N       2.36      -2.82      12.50
N       5.79      -0.48       7.04
O       4.14      -3.76       9.84
C       4.08       2.43       4.41
O       2.33       0.43       6.71
C       6.14       2.67       5.06
O       2.72      -1.30       8.11
O       3.12       3.10       8.07
O       4.93      -1.09      11.20
O       4.54       0.65       9.80
C       1.41       0.95      10.18
C       0.67      -0.01      11.99
C       3.22      -4.63       9.66
C       2.18      -0.77       7.11
C       3.18      -3.09      13.50
C       1.12      -3.33      12.85
C       5.85      -1.61       7.74
C       6.60      -0.64       5.92
