12

O       2.27       1.54       9.53
O       3.60       2.90       8.29
N       2.11       5.09       8.84
C       2.62       2.68       9.03
C       1.67       3.80       9.34
C       3.15       5.86       9.17
N       1.38       5.72       7.87
N       3.06       6.98       8.45
N       1.97       6.87       7.67
H       1.44       3.87      10.41
H       0.70       3.53       8.83
H       3.92       5.65       9.90
