100

Cu       0.11       2.06       5.90
Cu       1.15       5.24       4.11
Cu       0.55       3.82       9.38
Cu       6.95       9.25       3.86
Cu       5.91      12.41       5.65
Cu       6.51      10.99       0.36
Cu       5.34      12.33      13.61
Cu       4.30       9.15      15.40
Cu       4.90      10.57      10.12
Cu      -1.50       5.14      15.65
Cu      -0.46       1.98      13.86
Cu      -1.06       3.40      19.15
H      -0.09      14.37       3.77
H       1.21      13.72       1.73
H       4.37       1.96       3.08
H       2.97       2.49       5.09
H       7.15       7.18       5.98
H       5.86       6.53       8.02
H       2.69       9.15       6.67
H       4.10       9.67       4.66
H       5.54       0.02      15.73
H       4.24       0.67      17.77
H       1.08      12.43      16.43
H       2.48      11.90      14.42
H      -1.70       7.21      13.52
H      -0.40       7.86      11.49
H       2.76       5.24      12.84
H       1.35       4.72      14.85
W       0.89       4.55       6.82
W       6.17      11.73       2.93
W       4.56       9.84      12.69
W      -0.72       2.66      16.58
C       7.47       0.70       6.05
C       1.95       4.03       1.38
C       0.90       0.41       3.59
C       1.62       0.05       2.46
C       2.89       0.61       2.25
C       3.40       1.50       3.21
C       2.62       1.80       4.32
C       3.66       0.28       1.06
C      -0.40       7.90       3.71
C       5.11      11.22       8.38
C       6.16       7.59       6.17
C       5.44       7.23       7.30
C       4.17       7.80       7.50
C       3.67       8.69       6.54
C       4.45       8.98       5.43
C       3.40       7.47       8.70
C      -2.02      13.69      13.46
C       3.50      10.36      18.13
C       4.55      13.98      15.92
C       3.83      14.34      17.05
C       2.56      13.77      17.25
C       2.06      12.89      16.30
C       2.83      12.59      15.19
C       1.79      14.11      18.45
C       5.85       6.49      15.79
C       0.34       3.17      11.13
C      -0.71       6.80      13.34
C       0.01       7.16      12.21
C       1.28       6.59      12.01
C       1.78       5.70      12.97
C       1.00       5.41      14.08
C       2.06       6.92      10.81
S      -0.64       4.14       5.23
S       1.49       2.59       7.72
S       2.66       5.42       5.83
S      -0.00       5.78       8.43
S       7.71      11.33       4.53
S       5.57       9.76       2.03
S       4.40      12.59       3.92
S       7.07      12.96       1.32
S       6.09      10.25      14.28
S       3.96      11.80      11.79
S       2.79       8.97      13.67
S       5.45       8.61      11.08
S      -2.26       3.06      14.98
S      -0.12       4.63      17.47
S       1.05       1.80      15.59
S      -1.62       1.43      18.19
N       1.38       1.28       4.50
N       1.78       4.45       2.46
N       6.85      14.07       6.03
N       3.40      13.48       0.45
N       4.58       1.18       0.64
N       5.68       8.46       5.25
N       5.28      11.63       7.30
N       0.22       6.90       3.73
N       3.67       6.30       9.31
N       2.47       8.38       9.11
N       4.07      13.11      15.01
N       3.67       9.94      17.05
N      -1.40       0.32      13.48
N       2.05       0.91      19.06
N       0.87      13.21      18.86
N      -0.23       5.93      14.25
N       0.17       2.76      12.21
N       5.23       7.49      15.78
N       1.79       8.09      10.20
N       2.98       6.01      10.40
