34

O       0.17      13.89      17.39
O       0.33      11.92      18.46
O      -0.14      12.48      23.45
O       0.79      14.31      24.43
O       1.05      18.18      21.62
O       2.16      18.18      19.67
O       5.68      14.58      20.46
O       5.08      12.48      21.07
C       0.50      13.20      18.41
C       1.16      13.87      19.60
C       0.50      13.35      20.90
C       1.19      14.00      22.11
C       1.07      15.54      22.02
C       1.73      16.05      20.73
C       3.22      15.64      20.74
C       3.35      14.11      20.83
C       2.66      13.46      19.60
C       1.04      15.41      19.51
C       2.68      13.59      22.12
C       0.56      13.54      23.42
C       1.66      17.58      20.63
C       4.82      13.68      20.80
H      -0.57      13.61      20.90
H       0.57      12.26      20.95
H       1.55      15.99      22.89
H       0.01      15.83      22.05
H       3.73      16.11      21.59
H       3.70      16.02      19.83
H       2.75      12.37      19.66
H       3.14      13.80      18.67
H       1.52      15.77      18.59
H      -0.01      15.69      19.45
H       3.18      14.02      23.00
H       2.78      12.50      22.17
