66

Mn      21.73      26.13      18.34
N      23.73      26.21      16.33
N      23.30      26.17      20.03
Mn      17.93      28.48      16.48
N      23.02      25.32      17.10
N      19.21      27.60      17.64
N      19.98      26.61      17.01
Mn      25.25      25.18      15.19
N      26.26      26.43      14.12
N      25.66      26.78      12.90
Mn      22.87      30.95      10.19
Mn      19.35      31.90      13.34
Mn      26.67      28.60      12.05
N      16.38      26.79      16.70
N      21.58      31.76      11.43
N      20.87      30.87      12.21
N      21.30      30.91       8.50
N      18.34      30.65      14.41
N      18.94      30.30      15.63
N      25.39      29.48      10.89
N      24.62      30.47      11.52
C      16.06      26.29      17.91
C      15.85      26.21      15.62
N      28.22      30.29      11.83
C      21.65      23.24      18.63
C      23.37      24.02      16.92
C      23.41      27.49      16.64
O      21.11      24.44      18.85
C      22.90      26.20      21.32
O      22.54      27.72      17.61
O      26.56      25.23      16.51
O      24.28      23.71      16.05
C      24.61      26.36      19.77
O      24.18      25.16      13.57
O      20.48      27.14      19.49
C      27.68      25.95      16.61
O      17.20      29.39      17.94
O      18.81      27.33      15.17
O      27.90      27.91      13.49
C      27.43      27.07      14.35
C      24.57      26.07      12.70
C      17.57      29.41      19.22
C      28.54      30.79      10.62
C      28.75      30.87      12.91
C      19.50      27.79      18.94
C      19.70      26.54      15.73
C      22.95      33.83       9.90
C      21.23      33.06      11.61
C      21.19      29.59      11.89
O      23.49      32.64       9.68
O      20.32      33.37      12.48
O      22.06      29.36      10.92
O      18.04      31.85      12.02
O      16.70      29.17      15.04
O      20.42      31.92      14.96
O      27.40      27.69      10.60
C      16.92      31.13      11.92
O      25.79      29.75      13.36
O      24.12      29.94       9.04
C      21.70      30.88       7.21
C      19.99      30.72       8.76
C      17.17      30.01      14.18
C      20.03      31.01      15.83
C      27.03      27.67       9.32
C      25.10      29.29       9.59
C      24.90      30.54      12.80
