82

Zn       5.90       1.37       0.00
Zn       5.90      12.64       0.00
H       1.60       2.15       5.22
H       3.05       2.14       3.19
H      10.20      11.86       5.22
H       8.74      11.87       3.19
H      10.20       2.15      10.48
H       8.74       2.14      12.51
H       1.60      11.86      10.48
H       3.05      11.87      12.51
H      10.20      11.86      10.48
H       8.74      11.87      12.51
H       1.60       2.15      10.48
H       3.05       2.14      12.51
H       1.60      11.86       5.22
H       3.05      11.87       3.19
H      10.20       2.15       5.22
H       8.74       2.14       3.19
H       9.32       0.00       7.85
H       2.47       0.00       7.85
H       3.83       3.53       0.00
H       3.73       6.01       0.00
H       7.96      10.48       0.00
H       8.06       8.00       0.00
H       7.96       3.53       0.00
H       8.06       6.01       0.00
H       3.83      10.48       0.00
H       3.73       8.00       0.00
C       1.91       1.21       4.77
C       2.72       1.21       3.63
C       9.89      12.80       4.77
C       9.08      12.80       3.63
C       9.89       1.21      10.93
C       9.08       1.21      12.07
C       1.91      12.80      10.93
C       2.72      12.80      12.07
C       9.89      12.80      10.93
C       9.08      12.80      12.07
C       1.91       1.21      10.93
C       2.72       1.21      12.07
C       1.91      12.80       4.77
C       2.72      12.80       3.63
C       9.89       1.21       4.77
C       9.08       1.21       3.63
C       5.90       6.26       0.00
C       5.90       7.75       0.00
C       1.38       0.00       7.85
C      10.41       0.00       7.85
C       0.70       0.00       6.62
C       1.50       0.00       5.36
C       3.14       0.00       3.06
C       4.07      14.01       1.89
C      11.09       0.00       6.62
C      10.29       0.00       5.36
C       8.65       0.00       3.06
C       7.72      14.01       1.89
C      11.09       0.00       9.08
C      10.29       0.00      10.34
C       8.65       0.00      12.64
C       7.72      14.01      13.81
C       0.70       0.00       9.08
C       1.50       0.00      10.34
C       3.14       0.00      12.64
C       4.07      14.01      13.81
C       4.74       4.13       0.00
C       4.70       5.52       0.00
C       7.05       9.88       0.00
C       7.09       8.49       0.00
C       7.05       4.13       0.00
C       7.09       5.52       0.00
C       4.74       9.88       0.00
C       4.70       8.49       0.00
N       5.90       3.44       0.00
N       5.90      10.57       0.00
O       4.44       1.14       1.44
O       7.35      12.87       1.44
O       7.35       1.14      14.26
O       4.44      12.87      14.26
O       7.35      12.87      14.26
O       4.44       1.14      14.26
O       4.44      12.87       1.44
O       7.35       1.14       1.44
