22

Cr      10.95       6.55       8.07
Cr       7.56       6.49       8.55
Cr       9.33       3.57       8.58
C       8.83       7.86       6.25
C       6.86       3.94       6.96
C      11.28       4.21       6.27
C       9.37       8.28      10.08
C       7.44       4.32      10.74
C      11.33       4.93      10.25
O      11.70       5.38       6.55
O       7.21       5.39      10.11
O       8.17       3.41      10.27
O      10.85       3.83       9.74
O       9.28       5.54       8.40
O       9.97       7.52       6.71
O       7.77       7.69       6.89
O       6.83       5.14       7.38
O       7.76       3.14       7.32
O      10.47       3.58       7.00
O      12.11       5.65       9.51
O      10.35       7.77       9.45
O       8.18       7.97       9.85
