68

Mn       5.58       1.96       1.19
Mn       6.03       2.55       4.84
Mn      -0.25       4.95      10.86
Mn      -0.70       4.37       7.21
H       1.40       2.59       4.93
H       9.01       1.11       2.38
H       0.38       0.52       0.95
H       2.58       0.92       1.50
H       4.36       6.44       1.09
H       7.73      -0.55       3.64
H       6.11       7.94       5.08
H       6.28       5.72       4.52
H       3.94       4.33       7.12
H      -3.67       5.80       9.67
H       4.95       6.39      11.10
H       2.75       6.00      10.55
H       0.97       0.48      10.95
H      -2.39       7.46       8.40
H      -0.77      -1.03       6.97
H      -0.95       1.20       7.52
C       2.21       1.80       3.27
C       1.19       2.16       4.13
C      -0.13       1.89       3.82
C      -0.43       1.28       2.61
C       0.59       0.93       1.76
C       1.90       1.17       2.08
C       3.64       2.06       3.63
C      -1.22       2.27       4.76
C       5.34       5.85       2.76
C       4.73       6.75       1.89
C       4.65       8.09       2.21
C       5.16       8.53       3.41
C       5.76       7.64       4.27
C       5.86       6.31       3.94
C       5.45       4.41       2.39
C       4.00       9.05       1.26
C       3.12       5.12       8.78
C       4.14       4.76       7.92
C       5.46       5.02       8.23
C       5.76       5.63       9.44
C       4.75       5.99      10.29
C       3.43       5.74       9.97
C       1.69       4.86       8.42
C       6.56       4.64       7.29
C      -0.01       1.06       9.29
C       0.61       0.17      10.16
C       0.68      -1.17       9.84
C       0.17      -1.62       8.63
C      -0.43      -0.73       7.78
C      -0.53       0.61       8.10
C      -0.12       2.51       9.66
C       1.33      -2.14      10.78
O       4.54       1.43       3.01
O       3.89       2.85       4.55
O      -0.93       2.97       5.73
O       7.96       1.84       4.51
O       6.29       3.70       3.01
O       4.75       3.96       1.47
O       3.41       8.59       0.29
O       6.75       0.29       1.52
O       0.80       5.49       9.04
O       1.44       4.07       7.50
O       6.26       3.95       6.32
O      -2.62       5.07       7.54
O      -0.95       3.22       9.04
O       0.59       2.96      10.57
O       1.93      -1.67      11.75
O      -1.42       6.63      10.53
