12

Ni       3.91      10.12       8.29
C       1.80      10.36       6.24
C       3.74       9.03      10.54
N       5.35       8.82       7.71
O       4.57       9.99      10.33
O       2.94       8.65       9.62
C       4.86      12.26       6.53
C       5.05       7.85       6.83
C       6.60       8.89       8.21
O       2.94       9.85       6.61
N       4.86      11.81       7.80
C       5.71      12.38       8.69
