12

N       6.37       3.68      21.23
Ni       7.32       5.37      21.72
N       5.88       6.66      21.14
C       6.18       7.64      20.26
C       4.63       6.59      21.64
O       8.29       5.64      20.04
C       9.43       5.13      19.67
O       6.66       5.50      23.76
O       8.29       6.84      23.05
C       6.37       3.23      19.95
C       5.52       3.11      22.12
C       7.49       6.45      23.97
