11

Cd       2.98       7.61      14.47
C       1.43       7.51      12.18
C       4.23       9.87      16.43
N       4.23       9.36      15.21
N       4.84      10.26      14.34
O       2.30       6.79      16.55
O       2.30       8.43      12.40
C       4.23       5.34      12.52
N       4.23       5.86      13.74
C       1.43       7.71      16.76
N       4.84       4.96      14.60
