11

C       1.41      11.95       4.83
Mg       0.00      13.39       7.02
C      -1.41      16.01       7.17
H      -1.13      14.60       8.79
O      -0.84      13.61       8.95
O       0.84      11.61       7.80
O       0.79      12.96       5.22
C      -0.11      13.46      10.11
O      -0.79      15.17       6.49
H       1.13      11.25       6.86
C       0.11      10.68       8.51
