618

Ag      17.47       7.59       3.57
Ag      13.33       9.98       3.57
Ag      15.26      11.40      32.12
Ag      15.26       6.61      32.11
Ag      13.05       7.58      17.84
Ag      17.19       9.98      17.83
Ag      17.79      10.29      39.23
Ag      12.74      10.29      24.99
Ag      15.26       5.89      10.70
Ag       5.42       5.68      24.98
Ag       9.57       3.29      24.97
Ag       7.63       1.87      10.70
Ag       7.63       6.66      10.70
Ag       9.84       5.68      39.24
Ag       5.70       3.29      39.24
Ag       5.11       2.98      17.82
Ag      10.16       2.97       3.59
Ag       7.63       7.37      32.11
H       4.98       7.88       3.29
H       7.36       8.49       2.88
H       8.01       9.67       0.78
H       6.24      10.22      41.89
H      16.98       9.49      41.51
H      15.15       9.87      42.28
H      13.94       9.25       0.59
H      15.29       7.62      41.14
H      13.59       8.13      41.19
H      14.18       6.93      42.35
H      14.79       5.43       5.08
H      14.93       3.86       4.26
H      13.34       4.48       4.72
H      15.24       5.57       2.53
H      13.67       4.84       2.27
H      11.66       5.03       3.20
H       7.82       6.71       5.10
H       7.08       8.96       5.96
H       8.64      10.90       5.77
H      10.91      10.61       4.80
H       5.99       0.40      31.84
H       4.29       2.16      31.42
H       2.92       2.13      29.34
H       3.31       0.30      27.64
H      13.82      10.01      27.27
H      14.43       8.25      28.00
H      15.55       7.50      29.13
H      16.31       9.49      26.88
H      16.71       7.77      26.93
H      17.46       8.87      28.09
H      18.46      10.13      33.61
H      19.78      11.02      32.81
H      20.00       9.32      33.25
H      18.13      10.48      31.06
H      19.55       9.47      30.80
H       5.12       7.64      31.70
H       5.60       3.47      33.55
H       4.04       1.70      34.45
H       1.57       2.09      34.32
H      15.94       4.22      33.38
H      11.92       5.04      17.57
H      11.25       2.67      17.16
H      11.97       1.50      15.09
H      13.38       2.73      13.40
H      15.02       7.01      13.01
H      16.20       8.44      13.72
H      16.28       9.79      14.85
H      14.19       9.46      12.60
H      15.47      10.68      12.67
H      14.13      10.74      13.82
H      12.53      10.97      19.34
H      11.10      11.66      18.54
H      12.46      12.71      18.99
H      12.41      10.52      16.80
H      12.56      12.25      16.54
H       6.10       0.62      17.46
H       9.49       3.11      19.32
H      11.80       2.63      20.19
H      12.70       0.30      20.05
H      18.92      11.74      19.11
H       3.35       5.04       3.84
H       4.01       2.67       4.25
H       3.29       1.50       6.32
H       1.88       2.73       8.01
H      15.49       7.01       8.40
H      14.32       8.45       7.69
H      14.24       9.79       6.55
H      16.33       9.46       8.81
H      15.05      10.68       8.73
H      16.39      10.75       7.58
H      17.99      10.97       2.06
H      19.42      11.66       2.86
H      18.06      12.70       2.41
H      18.11      10.52       4.60
H      17.96      12.25       4.87
H       9.16       0.62       3.95
H       5.77       3.11       2.09
H       3.46       2.63       1.21
H       2.56       0.30       1.36
H      11.60      11.74       2.30
H      10.28       7.88      18.11
H       7.90       8.49      18.53
H       7.25       9.67      20.62
H       9.02      10.22      22.33
H      13.55       9.48      22.70
H      15.37       9.87      21.94
H      16.58       9.25      20.82
H      15.24       7.63      23.08
H      16.93       8.14      23.02
H      16.34       6.93      21.87
H      15.73       5.43      16.33
H      15.59       3.86      17.15
H      17.18       4.48      16.69
H      15.27       5.57      18.87
H      16.85       4.84      19.14
H       3.60       5.03      18.21
H       7.44       6.71      16.31
H       8.18       8.96      15.45
H       6.63      10.90      15.64
H      19.61      10.61      16.61
H       9.27       0.40      32.39
H      10.97       2.16      32.82
H      12.34       2.12      34.90
H      11.97       0.28      36.58
H      16.73       9.98      36.95
H      16.09       8.24      36.22
H      14.96       7.50      35.09
H      14.21       9.49      37.34
H      13.81       7.76      37.29
H      13.06       8.87      36.13
H      12.06      10.13      30.61
H      10.75      11.02      31.41
H      10.52       9.32      30.97
H      12.39      10.48      33.16
H      10.97       9.47      33.42
H      10.14       7.65      32.52
H       9.66       3.47      30.67
H      11.23       1.71      29.77
H      13.69       2.09      29.90
H      14.58       4.22      30.84
H      17.91       5.39      24.70
H      15.53       4.77      24.28
H      14.88       3.60      22.19
H      16.65       3.04      20.48
H       5.92       3.78      20.11
H       7.74       3.40      20.87
H       8.95       4.01      21.99
H       7.61       5.64      19.73
H       9.30       5.13      19.79
H       8.71       6.34      20.94
H       8.10       7.84      26.48
H       7.96       9.41      25.66
H       9.55       8.79      26.12
H       7.65       7.70      23.93
H       9.22       8.43      23.67
H      11.23       8.25      24.60
H      15.07       6.56      26.51
H      15.81       4.31      27.37
H      14.25       2.37      27.17
H      11.98       2.66      26.20
H      16.90      12.87      10.42
H      18.60      11.11      10.00
H      19.97      11.14       7.92
H      19.60      12.98       6.24
H       9.10       3.28       5.86
H       8.46       5.03       6.59
H       7.33       5.77       7.72
H       6.58       3.78       5.47
H       6.18       5.51       5.52
H       5.43       4.40       6.68
H       4.43       3.14      12.20
H       3.11       2.25      11.41
H       2.89       3.95      11.84
H       4.76       2.79       9.66
H       3.34       3.79       9.39
H      17.77       5.62      10.29
H      17.29       9.80      12.15
H      18.86      11.56      13.04
H      21.32      11.17      12.92
H       6.96       9.05      11.98
H      10.98       8.23      38.97
H      11.64      10.59      38.56
H      10.92      11.77      36.49
H       9.51      10.53      34.80
H       7.87       6.26      34.41
H       6.70       4.82      35.13
H       6.61       3.48      36.26
H       8.70       3.81      34.00
H       7.42       2.59      34.08
H       8.76       2.52      35.23
H      10.36       2.30      40.75
H      11.79       1.61      39.95
H      10.43       0.56      40.40
H      10.48       2.75      38.21
H      10.33       1.02      37.94
H      16.79      12.65      38.86
H      13.40      10.15      40.72
H      11.09      10.64      41.60
H      10.20      12.96      41.45
H       3.97       1.52      40.51
H      19.55       8.23      25.24
H      18.88      10.59      25.65
H      19.60      11.77      27.73
H      21.01      10.54      29.42
H       7.40       6.26      29.81
H       8.57       4.82      29.09
H       8.65       3.48      27.96
H       6.56       3.81      30.21
H       7.84       2.59      30.14
H       6.50       2.52      28.99
H       4.90       2.30      23.46
H       3.48       1.61      24.27
H       4.83       0.56      23.82
H       4.78       2.76      26.01
H       4.94       1.03      26.27
H      13.74      12.65      25.36
H      17.13      10.16      23.49
H      19.44      10.64      22.62
H      20.33      12.97      22.76
H      11.30       1.53      23.70
H      12.61       5.39      39.52
H      14.99       4.77      39.94
H      15.64       3.59      42.03
H      13.87       3.04       0.92
H       9.34       3.78       1.30
H       7.52       3.40       0.54
H       6.31       4.01      42.22
H       7.66       5.64       1.67
H       5.96       5.14       1.62
H       6.55       6.34       0.46
H       7.16       7.84      37.74
H       7.31       9.40      38.55
H       5.71       8.78      38.10
H       7.62       7.70      40.28
H       6.04       8.43      40.55
H      19.29       8.24      39.62
H      15.45       6.56      37.71
H      14.71       4.31      36.85
H      16.27       2.36      37.05
H       3.28       2.66      38.01
H      13.62      12.87      10.99
H      11.92      11.11      11.42
H      10.55      11.15      13.50
H      10.92      13.00      15.18
H       6.17       3.29      15.54
H       6.80       5.03      14.81
H       7.93       5.77      13.69
H       8.68       3.78      15.93
H       9.08       5.50      15.89
H       9.83       4.40      14.72
H      10.83       3.14       9.21
H      12.14       2.24      10.00
H      12.37       3.94       9.56
H      10.50       2.79      11.75
H      11.92       3.79      12.02
H      12.75       5.62      11.11
H      13.23       9.80       9.26
H      11.66      11.56       8.37
H       9.20      11.17       8.49
H       8.31       9.05       9.43
C      19.52       8.67       1.42
C       5.28       8.39       2.37
C       6.60       8.74       2.13
C       6.98       9.40       0.95
C       6.01       9.70       0.00
C      19.94       9.33       0.23
C      17.67       9.27      42.32
C      17.28       8.69       0.73
C      15.87       8.51       0.98
C      14.82       8.97      42.81
C      14.45       7.85      41.82
C      14.32       4.77       4.33
C      14.24       5.47       2.96
C      13.64       6.85       2.98
C      12.32       7.09       3.52
C      11.41       6.02       3.57
C       9.75       7.42       4.52
C       8.47       7.58       5.07
C       8.07       8.83       5.53
C       8.95       9.92       5.42
C      10.22       9.77       4.88
C      10.67       8.50       4.42
C      13.28      12.64      29.98
C       5.40       0.40      30.92
C       4.44       1.37      30.68
C       3.67       1.36      29.51
C       3.88       0.36      28.56
C      12.50      12.66      28.79
C      13.67      10.72      28.07
C      14.38      10.67      29.29
C      15.24       9.55      29.53
C      15.36       8.42      28.54
C      16.53       8.65      27.56
C      19.27      10.05      32.87
C      18.71       9.65      31.49
C      17.81       8.44      31.50
C      18.27       7.18      32.04
C       4.39       6.93      32.07
C       4.01       4.78      33.02
C       4.52       3.60      33.55
C       3.65       2.63      34.03
C       2.26       2.85      33.96
C      17.01       4.03      33.43
C      17.87       5.05      32.95
C      12.98       5.24      15.71
C      12.22       4.52      16.65
C      11.85       3.20      16.42
C      12.26       2.53      15.25
C      13.03       3.21      14.31
C      13.36       4.54      14.53
C      14.46       6.53      13.80
C      14.13       7.18      15.01
C      14.66       8.49      15.25
C      15.58       9.17      14.27
C      14.80      10.06      13.29
C      12.20      11.71      18.61
C      12.83      11.43      17.23
C      14.33      11.26      17.24
C      15.19      12.29      17.78
C       7.08       0.34      17.83
C       9.14       1.08      18.77
C       9.91       2.11      19.31
C      11.19       1.83      19.78
C      11.69       0.52      19.69
C      18.55      12.76      19.16
C      17.24      13.01      18.69
C      17.54       5.24       5.69
C       3.05       4.52       4.75
C       3.41       3.20       4.98
C       3.00       2.53       6.15
C       2.24       3.21       7.10
C      17.16       4.54       6.88
C      16.06       6.53       7.60
C      16.39       7.18       6.40
C      15.86       8.49       6.16
C      14.93       9.17       7.14
C      15.72      10.06       8.12
C      18.32      11.71       2.80
C      17.69      11.43       4.17
C      16.19      11.26       4.16
C      15.33      12.29       3.62
C       8.17       0.34       3.58
C       6.12       1.08       2.64
C       5.35       2.11       2.10
C       4.07       1.83       1.63
C       3.57       0.52       1.71
C      11.97      12.77       2.24
C      13.28      13.01       2.72
C      11.00       8.67      19.98
C       9.98       8.38      19.03
C       8.66       8.74      19.27
C       8.29       9.40      20.45
C       9.26       9.70      21.41
C      10.58       9.32      21.18
C      12.85       9.26      21.90
C      13.24       8.69      20.68
C      14.65       8.50      20.43
C      15.70       8.97      21.41
C      16.07       7.85      22.40
C      16.20       4.77      17.07
C      16.28       5.47      18.44
C      16.88       6.85      18.42
C      18.20       7.09      17.88
C       3.85       6.02      17.83
C       5.51       7.42      16.89
C       6.79       7.58      16.34
C       7.19       8.83      15.87
C       6.31       9.92      15.99
C      20.30       9.77      16.53
C      19.85       8.50      16.99
C      17.25      12.63      34.24
C       9.87       0.39      33.31
C      10.82       1.37      33.55
C      11.60       1.35      34.72
C      11.39       0.34      35.66
C      18.04      12.65      35.43
C      16.87      10.70      36.15
C      16.16      10.66      34.94
C      15.28       9.54      34.70
C      15.16       8.41      35.68
C      14.00       8.65      36.67
C      11.25      10.05      31.35
C      11.81       9.65      32.73
C      12.71       8.44      32.72
C      12.25       7.18      32.18
C      10.87       6.93      32.15
C      11.25       4.79      31.20
C      10.74       3.60      30.67
C      11.62       2.63      30.19
C      13.00       2.86      30.26
C      13.51       4.04      30.79
C      12.65       5.05      31.27
C       3.37       4.60      22.83
C      17.61       4.88      23.78
C      16.29       4.53      23.54
C      15.92       3.87      22.36
C      16.88       3.57      21.41
C       2.95       3.94      21.63
C       5.22       4.00      20.91
C       5.61       4.58      22.13
C       7.02       4.76      22.38
C       8.07       4.30      21.41
C       8.44       5.41      20.41
C       8.57       8.50      25.74
C       8.65       7.80      24.37
C       9.25       6.42      24.39
C      10.57       6.18      24.93
C      11.48       7.25      24.98
C      13.14       5.85      25.92
C      14.42       5.69      26.48
C      14.82       4.44      26.94
C      13.94       3.35      26.83
C      12.67       3.50      26.28
C      12.22       4.77      25.82
C       9.62       0.64       8.57
C      17.49      12.87       9.51
C      18.45      11.90       9.27
C      19.22      11.91       8.10
C      19.02      12.92       7.15
C      10.41       0.61       7.38
C       9.24       2.56       6.66
C       8.53       2.60       7.88
C       7.65       3.72       8.11
C       7.52       4.86       7.13
C       6.36       4.62       6.15
C       3.62       3.22      11.46
C       4.18       3.62      10.08
C       5.08       4.82      10.10
C       4.62       6.09      10.63
C      18.50       6.34      10.67
C      18.88       8.48      11.61
C      18.37       9.67      12.14
C      19.25      10.64      12.63
C      20.63      10.41      12.55
C       5.88       9.23      12.02
C       5.02       8.22      11.54
C       9.91       8.02      37.12
C      10.68       8.75      38.06
C      11.04      10.07      37.83
C      10.63      10.73      36.66
C       9.87      10.06      35.71
C       9.53       8.72      35.93
C       8.43       6.74      35.21
C       8.76       6.09      36.42
C       8.23       4.77      36.65
C       7.31       4.10      35.67
C       8.09       3.21      34.69
C      10.69       1.55      40.02
C      10.06       1.83      38.64
C       8.56       2.01      38.65
C       7.70       0.98      39.19
C      15.81      12.93      39.24
C      13.76      12.18      40.17
C      12.98      11.15      40.71
C      11.70      11.43      41.18
C      11.20      12.75      41.10
C       4.34       0.50      40.57
C       5.66       0.26      40.09
C       5.36       8.02      27.10
C      19.84       8.75      26.16
C      19.48      10.07      26.39
C      19.89      10.74      27.56
C      20.65      10.06      28.50
C       5.73       8.72      28.28
C       6.83       6.74      29.01
C       6.51       6.09      27.80
C       7.04       4.78      27.56
C       7.96       4.10      28.54
C       7.17       3.21      29.53
C       4.57       1.56      24.20
C       5.20       1.84      25.58
C       6.70       2.01      25.56
C       7.57       0.98      25.02
C      14.72      12.93      24.98
C      16.77      12.19      24.04
C      17.55      11.16      23.50
C      18.83      11.44      23.03
C      19.33      12.75      23.12
C      10.92       0.50      23.65
C       9.61       0.26      24.12
C      11.90       4.60      41.39
C      12.91       4.88      40.44
C      14.23       4.53      40.68
C      14.60       3.87      41.86
C      13.63       3.57       0.00
C      12.31       3.94      42.59
C      10.04       4.00       0.49
C       9.65       4.58      42.08
C       8.24       4.76      41.83
C       7.19       4.30      42.81
C       6.82       5.42       0.99
C       6.70       8.49      38.48
C       6.61       7.80      39.85
C       6.01       6.41      39.83
C       4.69       6.18      39.29
C      19.05       7.25      39.24
C      17.38       5.85      38.29
C      16.10       5.69      37.74
C      15.70       4.44      37.28
C      16.58       3.35      37.39
C       2.59       3.50      37.93
C       3.04       4.76      38.39
C       5.64       0.64      12.84
C      13.03      12.88      11.90
C      12.07      11.90      12.15
C      11.29      11.92      13.32
C      11.50      12.93      14.26
C       4.85       0.62      14.03
C       6.02       2.57      14.74
C       6.74       2.61      13.53
C       7.61       3.73      13.29
C       7.74       4.86      14.27
C       8.90       4.62      15.26
C      11.64       3.22       9.94
C      11.08       3.62      11.32
C      10.18       4.82      11.31
C      10.64       6.09      10.78
C      12.02       6.34      10.74
C      11.64       8.48       9.80
C      12.15       9.67       9.26
C      11.27      10.64       8.78
C       9.89      10.41       8.85
C       9.38       9.23       9.38
C      10.24       8.22       9.87
N      18.95       9.58      42.06
N      18.22       8.35       1.67
N      15.52       7.84       2.08
N      14.24       7.91       2.46
N      11.94       8.34       3.92
N      10.16       6.16       4.03
N      12.76      11.67      27.82
N      14.20      11.66      30.23
N      16.00       9.58      30.62
N      16.59       8.44      30.99
N      17.37       6.23      32.45
N       4.90       5.77      32.53
N      14.10       5.26      13.56
N      13.36       6.54      15.95
N      14.25       9.13      16.34
N      14.95      10.21      16.72
N      16.46      11.99      18.19
N       7.84       1.36      18.28
N      16.42       5.26       7.85
N      17.16       6.54       5.45
N      16.27       9.13       5.06
N      15.57      10.21       4.69
N      14.05      11.99       3.21
N       7.42       1.36       3.13
N      11.57       9.58      22.15
N      12.30       8.35      19.73
N      15.00       7.84      19.33
N      16.28       7.91      18.95
N      18.58       8.34      17.48
N       5.10       6.16      17.38
N      17.79      11.65      36.40
N      16.33      11.65      34.00
N      14.52       9.58      33.60
N      13.93       8.44      33.23
N      13.15       6.23      31.77
N      10.37       5.77      31.69
N       3.94       3.68      20.66
N       4.67       4.92      23.08
N       7.37       5.43      23.48
N       8.65       5.36      23.86
N      10.96       4.93      25.33
N      12.73       7.11      25.43
N      10.15       1.61       6.41
N       8.69       1.61       8.82
N       6.89       3.68       9.21
N       6.30       4.83       9.58
N       5.52       7.04      11.04
N      18.00       7.50      11.12
N       8.79       8.01      34.96
N       9.53       6.73      37.36
N       8.64       4.13      37.75
N       7.95       3.05      38.13
N       6.43       1.27      39.60
N      15.05      11.91      39.68
N       6.47       8.01      29.25
N       5.73       6.73      26.86
N       6.62       4.14      26.47
N       7.32       3.06      26.09
N       8.84       1.28      24.62
N      15.48      11.91      24.53
N      11.32       3.68       0.75
N      10.59       4.91      41.14
N       7.90       5.43      40.73
N       6.62       5.35      40.35
N       4.31       4.92      38.89
N      17.79       7.11      38.78
N       5.11       1.62      14.99
N       6.57       1.62      12.59
N       8.37       3.69      12.19
N       8.96       4.83      11.82
N       9.74       7.04      10.36
N      12.53       7.50      10.29
O       9.29       5.17       4.02
O      19.34      10.13      40.93
O       6.18       5.52      32.52
O      12.10      11.74      26.68
O       7.43       2.60      18.27
O      14.40       4.64      12.43
O       7.83       2.60       3.14
O      16.12       4.64       8.98
O       5.97       5.18      17.38
O      11.19      10.13      23.29
O       9.08       5.52      31.70
O      18.46      11.71      37.54
O      13.60       8.10      25.43
O       3.56       3.14      19.52
O      16.71       7.75      11.11
O      10.82       1.55       5.27
O      15.47      10.66      39.68
O       8.49       8.62      33.84
O      15.06      10.67      24.54
O       6.77       8.62      30.38
O      16.92       8.09      38.79
O      11.70       3.13       1.89
O      13.81       7.75      10.29
O       4.44       1.57      16.13
