18

H       3.56       0.65      25.43
Al       1.92       0.02      23.81
Al       5.24      -0.04      23.86
C       0.23       1.83      25.45
C       3.57       1.80      22.19
O       0.24       0.02      23.01
O       1.37       1.35      25.12
O       2.42       1.49      22.65
O       3.57       0.07      24.65
O       1.44      -1.40      24.98
O       2.52      -1.20      22.47
H       0.20       0.59      22.22
O       5.74       1.42      25.06
O       5.82      -1.32      25.16
O       4.67       1.21      22.46
O       4.73      -1.54      22.79
C       0.31      -1.81      25.44
C       3.61      -1.82      22.26
