32

H       5.27      11.59      12.52
H       4.41       9.16      11.41
H       1.06      11.42      12.71
H       0.66       9.38      11.08
H       2.07       8.44      10.59
N       3.16      11.90      12.79
N       2.48      10.01      11.88
H      -1.05       5.53      13.24
H      -0.60       7.35      11.62
N       1.38       4.55      16.40
H      -0.56       4.85      15.77
H       3.12       3.84      15.34
N       2.25       4.64      18.43
H       0.20       5.20      18.10
H       0.40       3.79      14.73
H       2.60       6.48      15.31
H       4.22       3.94      17.91
H       3.09       8.24      13.66
C       4.27      11.19      12.37
C       3.86      10.01      11.80
C       2.09      11.16      12.49
C       1.59       8.93      11.45
C       1.29       7.91      12.52
C       2.17       7.66      13.57
C       1.90       6.65      14.50
C       0.75       5.87      14.38
C      -0.15       6.14      13.34
C       0.11       7.15      12.42
C       0.43       4.72      15.31
C       2.70       4.12      16.30
C       3.23       4.18      17.56
C       1.15       4.85      17.71
