32

C       5.48       5.33       7.46
C       6.02       4.93       5.35
C       6.59       6.12       5.75
C       4.61       3.16       6.53
C       5.22       2.28       7.60
C       6.59       2.01       7.61
C       4.41       1.73       8.60
N       5.30      -3.42      10.12
N       6.24      -1.52      10.77
N       6.25       6.35       7.08
N       5.31       4.45       6.44
H       6.51      -2.27       8.75
H       5.50      -1.46      12.79
H       4.33      -3.88      11.99
H       8.00      -0.41      10.44
H       6.89       0.23      11.66
H       4.32       0.50      10.36
H       8.22       1.00       8.60
H       5.05       5.20       8.45
H       6.05       4.39       4.41
H       7.22       6.81       5.21
H       3.55       3.34       6.76
H       4.66       2.70       5.54
H       7.24       2.43       6.84
H       3.34       1.94       8.60
C       6.07      -2.40       9.74
C       5.53      -2.00      11.86
C       4.96      -3.19      11.45
C       6.94      -0.23      10.67
C       6.33       0.66       9.60
C       4.96       0.92       9.59
C       7.15       1.20       8.60
