19

C       5.40       4.61      12.00
C       6.64       4.03      12.26
H       7.56       4.53      11.96
C       6.71       2.78      12.90
H       3.26       4.42      12.16
C       4.28       2.70      12.98
C       8.03       2.15      13.20
C       4.22       3.96      12.36
S       5.30       6.19      11.16
C       5.53       2.12      13.26
H       5.57       1.15      13.75
C       3.02       1.94      13.31
O       6.52       6.23      10.30
O       5.30       7.25      12.19
O       4.05       6.11      10.36
O       9.10       2.83      12.97
O       8.06       0.97      13.67
O       3.10       0.82      13.87
O       1.92       2.53      12.99
