112

Cr      10.89       6.45       7.94
Cr       9.24       3.47       8.46
Cr       7.51       6.45       8.44
Cr       0.91       0.55       0.48
Cr       4.31       0.57       0.11
Cr       2.58       3.54       0.13
H      10.29       6.52      12.10
H       8.39       7.52      13.97
H       7.54       9.37      11.94
H       4.45       1.81      13.02
H      12.22       8.39      13.12
H      10.45       4.13      12.61
H      12.23       5.99      13.83
H      13.62       6.20      11.33
H       4.68       4.09      12.19
H       2.73       2.21      10.97
H      12.12       2.02      13.42
H       4.14       4.77       5.46
H       3.82       2.22       4.25
H       6.23       1.35       5.45
H       7.65       2.22       3.11
H      10.02       6.92       3.21
H      10.99       5.45       3.29
H      10.47       6.07       1.69
H       9.10       4.09       2.41
H       8.13       5.58       2.13
H       8.08       6.01       4.60
H       9.05       4.54       4.90
H       6.89       1.33       8.15
H      10.39       9.90       8.13
H       5.32       2.17       7.74
H       4.52       1.67      10.04
H       5.76       2.92       9.95
H       7.03       1.78      11.49
H      12.29       9.83      10.35
C      11.65       4.26       9.97
C       7.78       4.79      10.64
C       9.57       8.18       9.93
C      11.15       3.87       6.22
C       6.71       4.11       6.83
C       8.98       7.94       6.17
C       7.72       4.63      12.04
C       7.59       4.49      13.22
C       9.04       8.14      13.31
C      10.12       7.59      12.34
C       9.67       8.62      11.29
C       8.59       9.15      12.23
C       9.63      10.17      12.74
C      10.69       9.62      11.79
C      11.17       8.61      12.85
C      10.08       9.15      13.79
C      12.52       5.15      13.16
C      11.55       4.13      12.53
C      12.35       4.22      11.22
C      13.30       5.26      11.83
C      14.23       4.10      12.27
C      13.25       3.07      11.63
C      12.46       2.97      12.95
C      13.42       4.00      13.57
C       5.71       4.66       3.70
C       7.03       4.19       4.29
C       6.25       3.72       5.53
C       4.93       4.20       4.93
C       4.76       2.80       4.29
C       6.09       2.32       4.92
C       6.87       2.79       3.66
C       5.55       3.30       3.06
C       8.60       8.50       4.91
C       8.29       8.82       3.78
C      11.51       3.43       4.91
C      11.61       2.98       3.80
C      10.31       9.71      15.10
C       7.24       4.35      14.59
C      13.93       3.79      14.91
C       8.11       9.11       2.39
C       4.99       3.07       1.77
C      11.71       2.53       2.44
C       8.32       5.01       4.23
C       8.88       5.10       2.80
C      10.16       5.93       2.74
C       6.46       1.06      10.86
C       5.59       1.83       9.84
C       5.81       1.43       8.39
N       5.53       5.97       3.07
O      10.66       7.92       9.35
O      11.70       5.34       9.33
O      10.84       3.32       9.75
O       8.12       3.70      10.00
O       6.83       5.52      10.14
O       8.46       7.69       9.59
O      10.21       7.67       6.42
O      11.28       5.10       6.61
O      10.39       3.06       6.81
O       7.70       3.47       7.29
O       6.37       5.27       7.21
O       8.05       7.45       6.87
O       9.22       5.46       8.28
O      13.15       3.03      15.61
O       9.31      10.28      15.65
O      11.49      10.06      15.32
O       7.42       3.22      15.17
O       6.47       5.25      15.04
O      14.43       4.85      15.47
O      10.80       1.69       2.00
O       6.93       8.93       1.83
O       9.14       8.72       1.71
O       5.04       1.88       1.34
O       4.12       3.91       1.44
O      12.05       3.50       1.65
O       2.60       1.55       0.24
O       5.42       7.02       3.82
O       5.65       6.11       1.79
