16

F       5.43       4.36       2.89
F       6.06       3.60       7.50
O       4.55       8.79       5.52
O       7.28       2.49       4.04
C       4.02       7.76       6.03
O       3.00       7.83       6.73
C       4.63       6.42       5.75
C       5.06       5.57       6.75
C       6.38       2.55       4.85
C       5.76       3.91       5.18
O       5.95       1.54       5.49
C       5.61       4.35       6.47
C       4.78       5.96       4.43
C       5.33       4.75       4.18
F       4.94       5.95       8.03
F       4.31       6.72       3.43
