10

H       6.48       1.53      12.60
H       4.67      -0.88      13.29
O       3.18       1.16      12.93
O       4.45       3.01      13.14
O       7.96      -0.64      12.75
O       6.69      -2.37      13.46
C       4.32       1.76      12.96
C       5.57       0.97      12.80
C       5.59      -0.35      13.04
C       6.83      -1.16      13.08
