84

Zn       8.63       5.46       6.21
Zn       5.58       5.46       6.21
H       2.46       4.00       2.35
H       1.13       4.98       0.54
H      10.99       4.36      10.94
H      13.05       3.85      12.11
H       4.58       3.76       3.42
H       5.10       9.65       5.80
H       9.27       8.53       8.03
H      11.71       1.03       7.00
H       9.92       2.15       5.90
H       5.03       1.30       5.65
H       3.38       3.87       7.57
H       4.58       7.27       4.47
H      10.80       8.74       3.03
H       9.62       7.21       4.40
H      10.83       3.90       7.60
H       4.55       7.44       8.61
H      11.72      10.36      10.30
H       1.05       1.90       1.97
C       7.14       8.03       6.33
C       7.03       5.14       3.73
C       7.09       2.88       6.16
C       7.18       5.58       8.74
C       6.15       5.18      12.33
C       7.22       5.63      10.21
C       8.13       4.15       1.66
C       8.06       4.03       0.27
C      11.01       4.50      12.00
C       5.70       4.58       0.32
C       5.74       4.46       1.71
C       8.58       5.03      12.12
C       3.26       4.66       0.46
C       3.34       4.23       1.78
C       4.56       4.13       2.40
C       8.48       5.57      10.84
C       6.05       5.61      11.01
C       6.99       4.58       2.36
C       9.41       9.48       7.54
C      10.66      10.09       7.63
C      10.72       0.58       7.02
C       9.65       1.25       6.43
C       8.34       0.72       6.47
C       8.34      10.12       6.85
C       7.15       9.45       6.49
C       6.03      10.15       6.06
C       5.94       0.77       5.93
C       7.15       1.44       6.13
C       3.52       7.23       4.52
C       2.83       8.11       3.68
C       1.43       8.08       3.68
C      10.68       7.20       4.50
C      11.35       6.33       5.38
C       2.85       6.34       5.38
C       2.85       4.59       6.96
C      11.36       4.60       6.97
S       4.53       6.35      10.49
S      12.00       9.28       8.44
S       9.45       3.34       2.50
N       3.56       5.47       6.19
N      10.65       5.47       6.19
N       3.54       9.03       2.82
N       9.52       6.46      10.39
O       8.27       7.43       6.21
O       5.99       7.43       6.21
O       8.18       5.43       4.30
O       5.90       5.43       4.30
O       8.22       3.49       6.21
O       5.94       3.49       6.21
O       8.31       5.49       8.11
O       6.04       5.49       8.11
O       3.71       5.35       9.75
O      13.69       6.83      11.69
O       4.88       7.68       9.51
O      12.01       7.84       8.04
O       3.37       9.92       8.07
O      11.78       9.39      10.11
O       4.84       9.04       2.80
O       2.89       9.85       2.05
O      10.37       6.11       9.47
O       9.69       7.59      11.01
O      10.28       4.35       3.25
O       8.87       2.36       3.48
O      10.42       2.50       1.41
