38

Ca       3.65       3.16       0.40
Ca       8.08       8.34       8.97
H       3.28       4.81       3.32
H       7.31       5.70       3.12
H       8.71      11.06       8.63
H       8.63       2.29       0.24
H       8.44       6.69       6.05
H       4.42       5.80       6.25
H       3.01       0.45       0.74
H       3.10       9.22       9.14
C       9.30       4.68       2.10
C       9.66       5.26       3.43
C       2.64       5.19       3.87
C       8.70       5.85       4.26
C       7.06       4.97       8.97
C       8.22       4.04       9.15
C       8.51       1.37       0.14
C      10.48      10.99       9.01
C       2.43       6.82       7.27
C       2.07       6.25       5.94
C       9.09       6.32       5.50
C       3.02       5.66       5.11
C       4.67       6.53       0.40
C       3.50       7.47       0.22
C       3.21      10.14       9.23
C       1.24       0.52       0.36
O       1.81       4.00       1.50
O       8.14       4.93       1.66
O       5.92       4.47       8.79
O       7.23       6.21       9.05
O       7.40       5.99       3.89
O       9.27      10.46       8.67
O       9.92       7.51       7.87
O       3.59       6.58       7.71
O       5.81       7.03       0.58
O       4.50       5.30       0.32
O       4.32       5.52       5.48
O       2.45       1.05       0.70
