22

H       0.24       1.66      15.81
H       0.96       5.59      15.86
H       2.62       5.34      14.32
H       3.92       3.87      12.78
H       3.31      -0.07      12.83
H       1.68       0.16      14.40
C       0.72       2.39      15.50
C       0.42       3.64      15.97
C       1.15       4.74      15.52
C       2.15       4.59      14.61
C       3.46       3.14      13.10
C       3.75       1.90      12.62
C       3.09       0.78      13.14
C       2.12       0.92      14.08
C       1.76       2.20      14.56
C       2.46       3.32      14.09
C      -0.68       3.85      16.97
C       4.77       1.78      11.51
O      -0.94       5.01      17.28
O      -1.26       2.83      17.39
O       4.96       0.65      11.04
O       5.32       2.83      11.17
