22

O       2.78      11.25      10.43
O       2.46       9.06      10.32
O       8.69       6.88      16.67
O       9.05       9.07      16.54
H       3.96       7.90      11.90
H       4.68      11.82      11.85
H       6.35      11.57      13.40
H       7.65      10.11      14.93
H       7.04       6.17      14.88
H       5.41       6.40      13.31
C       4.45       8.63      12.21
C       4.15       9.87      11.74
C       4.88      10.98      12.19
C       5.87      10.83      13.11
C       7.18       9.37      14.61
C       7.48       8.14      15.09
C       6.81       7.02      14.58
C       5.84       7.16      13.64
C       5.48       8.43      13.15
C       6.18       9.56      13.62
C       3.04      10.09      10.74
C       8.50       8.01      16.20
