22

O       7.53       1.61       9.26
O       8.44       3.07      10.60
H      11.13      -1.06       6.94
H      13.19      -2.05       6.84
H      14.29      -0.29      10.26
H      12.61       1.06      11.54
H      10.56       2.05      11.64
H       9.46       0.29       8.21
C      11.75      -0.92       7.62
C      12.98      -1.50       7.55
C      13.94      -1.27       8.56
C      13.64      -0.46       9.62
C      12.35       0.12       9.74
C      15.24      -2.02       8.52
C      12.00       0.92      10.85
C      10.77       1.50      10.92
C       9.81       1.27       9.91
C      10.11       0.46       8.86
C      11.39      -0.12       8.73
C       8.51       2.02       9.95
O      16.21      -1.61       9.22
O      15.30      -3.07       7.87
