22

H       3.49       4.58       6.58
H       2.77       0.65       6.62
H       1.10       0.90       5.08
H      -0.19       2.36       3.54
H       0.42       6.30       3.59
H       2.04       6.07       5.17
C       3.01       3.85       6.27
C       3.30       2.60       6.73
C       2.57       1.49       6.29
C       1.58       1.64       5.37
C       0.27       3.10       3.87
C      -0.02       4.33       3.38
C       0.64       5.46       3.90
C       1.61       5.32       4.84
C       1.97       4.04       5.32
C       1.27       2.91       4.85
C       4.41       2.39       7.73
C      -1.04       4.46       2.27
O       4.67       1.22       8.05
O       4.99       3.41       8.15
O      -1.24       5.59       1.81
O      -1.60       3.41       1.93
