27

Mn       5.30       7.49      12.98
Mn       6.65       9.40       9.67
Mn       3.95       5.58      16.29
N       6.47       7.08      14.78
N       6.01       6.43      15.91
N       7.73       7.41      15.00
N       6.94       6.33      16.87
N       4.52       5.45      13.04
N       4.06       4.80      14.17
N       4.41       4.61      12.02
N       3.66       3.54      13.92
N       3.63       8.15      14.24
N       3.17       7.49      15.36
N       2.88       9.22      14.06
N       2.12       8.11      15.93
N       4.12       7.90      11.17
N       4.59       8.55      10.05
N       2.86       7.58      10.96
N       3.66       8.65       9.08
N       6.08       9.54      12.91
N       6.54      10.19      11.78
N       6.19      10.38      13.93
N       6.94      11.45      12.04
N       6.97       6.84      11.72
N       7.43       7.49      10.59
N       7.72       5.77      11.89
N       8.48       6.88      10.02
