27

N       1.67       1.42      25.89
N       2.13       2.06      24.76
Mn       0.00       0.00      25.95
N       3.18       2.87      25.01
N       2.42       1.80      26.91
Mn      -1.35      -1.91      29.27
Mn       1.35       1.91      22.64
N      -1.17       1.36      24.70
N      -0.71       2.01      23.57
N      -2.43       1.71      24.87
N      -1.64       2.79      23.00
N       0.78      -0.97      24.15
N       1.24      -0.31      23.02
N       0.89      -2.27      23.93
N       1.64      -1.16      22.06
N      -1.67      -1.42      26.02
N      -2.13      -2.06      27.15
N      -2.42      -1.80      25.00
N      -3.18      -2.87      26.90
N       1.17      -1.36      27.21
N       0.71      -2.01      28.34
N       2.43      -1.71      27.04
N       1.64      -2.79      28.91
N      -0.78       0.97      27.76
N      -1.24       0.31      28.88
N      -0.89       2.27      27.98
N      -1.64       1.16      29.85
