27

N      11.38      -5.45      13.04
N      11.83      -4.80      14.17
N      11.49      -4.61      12.02
N      12.24      -3.54      13.92
Mn      10.60      -7.49      12.98
Mn       9.24      -9.40       9.67
N      12.27      -8.15      14.24
N      12.72      -7.49      15.36
N      13.02      -9.22      14.06
Mn      11.95      -5.58      16.29
N      13.78      -8.11      15.93
N       9.82      -9.54      12.91
N       9.36     -10.19      11.78
N       9.70     -10.38      13.93
N       8.95     -11.45      12.04
N       9.42      -7.08      14.78
N       9.89      -6.43      15.91
N       8.16      -7.41      15.00
N       8.95      -6.33      16.87
N       8.93      -6.84      11.72
N       8.47      -7.49      10.59
N       8.17      -5.77      11.89
N       7.41      -6.88      10.02
N      11.77      -7.90      11.17
N      11.30      -8.55      10.05
N      13.03      -7.58      10.96
N      12.24      -8.65       9.08
