20

Zn       5.36       6.18      12.26
Zn       3.88       3.97      15.07
O       4.74       6.84      10.47
O       4.49       3.31      16.86
C       2.85       7.57      13.29
C       2.31       6.53      15.08
C       5.74       6.42       9.74
C       7.47       7.66      14.03
C       6.93       8.70      12.24
C       6.38       2.58      14.03
C       6.92       3.62      12.24
C       3.49       3.73      17.59
C       1.76       2.49      13.29
C       2.30       1.45      15.08
N       3.28       5.82      14.50
N       3.63       6.49      13.35
N       6.63       7.60      12.97
N       5.95       4.33      12.82
N       5.60       3.66      13.98
N       2.60       2.56      14.36
