20

Zn       8.49       1.10       1.41
N      11.24      -2.52      -0.69
N       7.90      -0.74       0.84
N       8.25      -1.41      -0.31
Zn       9.97      -1.10      -1.41
O       9.10       1.76       3.20
O       9.36      -1.76      -3.20
C       8.10       1.34       3.92
C       6.38       2.58      -0.37
C       6.92       3.62       1.42
C      10.99       2.49       0.37
C      11.53       1.45      -1.42
C      10.36      -1.34      -3.92
C      12.08      -2.58       0.37
C      11.54      -3.62      -1.42
C       7.47      -2.49      -0.37
C       6.93      -1.45       1.42
N       7.22       2.52       0.69
N      10.56       0.74      -0.84
N      10.21       1.41       0.31
