22

O      12.59       9.15       1.52
O      13.54      11.17       0.02
Cr      15.27      10.18       0.14
Cr      13.51      13.17      -0.10
Cr      11.84      10.17       0.02
O      14.88       8.71      -1.30
O      15.87      11.31      -1.32
O      14.93      13.34      -1.59
O      12.20      12.95      -1.55
C      15.76      12.42      -1.94
C      11.35      12.20      -2.11
C      13.72       8.40      -1.75
C      15.67      12.69       1.94
C      11.62      12.20       2.01
C      13.61       8.66       2.08
O      10.93      11.12      -1.59
O      12.66       8.94      -1.29
O      14.80       8.94       1.73
O      15.80      11.52       1.49
O      14.85      13.56       1.44
O      12.13      13.16       1.26
O      10.85      11.35       1.44
