18

N       1.33       5.36       5.42
N      -1.53       5.36       5.42
N       1.33       3.07       6.19
N      -1.53       3.11       6.30
H      -1.33       8.51       4.74
H      -1.28       7.90       6.51
H       1.08       8.53       4.67
H       1.11       2.83       7.18
H       1.04       2.28       5.57
F       1.23       7.97       6.69
H      -1.16       2.85       7.24
H      -1.34       2.30       5.67
C       0.61       6.42       4.97
C       0.62       4.24       5.80
C      -0.82       4.25       5.83
C      -0.80       6.43       4.99
C      -0.86       7.83       5.48
C       0.66       7.84       5.44
