20

H       3.24       9.45       4.04
H       3.22      11.90       4.09
H       7.32      11.81       7.69
H       5.50      11.82       8.12
H       7.33       9.44       7.63
H       5.51       9.42       8.09
O       6.08       7.30       5.43
O       3.78       7.30       5.43
O       6.10      14.04       5.43
O       3.80      14.04       5.43
C       4.93       7.89       5.42
C       5.96       9.97       6.03
C       4.95       9.30       5.36
C       3.99       9.98       4.61
C       3.99      11.36       4.63
C       4.95      12.03       5.39
C       5.97      11.34       6.04
C       6.32      11.39       7.50
C       4.95      13.44       5.44
C       6.32       9.88       7.48
