198

C       6.75      10.71      26.96
C       7.19       9.87      25.91
C       8.31       9.02      26.04
C       9.10       9.08       0.10
C       8.76      10.00       1.14
C       7.56      10.79       1.03
C      31.95      11.42      26.80
C      31.72      12.38      25.75
C      30.41      12.94      25.55
C      29.35      12.62      26.47
C      29.60      11.73       0.44
C      30.88      11.15       0.58
C      18.71      10.01       8.89
C      17.76      10.04       7.83
C      16.46       9.50       7.96
C      16.12       8.78       9.14
C      17.09       8.62      10.18
C      18.37       9.26      10.07
C      19.94      10.72       8.72
C      20.89      10.45       7.68
C      22.03      11.30       7.48
C      22.28      12.37       8.39
C      21.39      12.60       9.48
C      20.24      11.79       9.62
C      12.12       0.00      17.93
C      12.63       0.81      16.87
C      12.80       2.20      17.00
C      12.35       2.86      18.18
C      11.72       2.10      19.22
C      11.64       0.67      19.11
C      25.34      21.47      17.76
C      24.63      20.79      16.71
C      24.80      19.38      16.52
C      25.60      18.62      17.43
C      26.24      19.28      18.52
C      26.11      20.68      18.66
C      10.15       4.18      22.03
C       9.77       4.23      23.39
C       9.24       5.40      24.00
C       9.03       6.58      23.23
C       9.39       6.54      21.85
C       9.96       5.36      21.28
C      10.65       2.97      21.47
C       8.44       7.75      23.80
C      11.35      10.32       3.95
C      11.58      10.63       5.31
C      12.86      10.50       5.92
C      13.99      10.09       5.15
C      13.77       9.80       3.77
C      12.47       9.90       3.20
C      10.05      10.50       3.40
C      15.29      10.01       5.72
C      16.07       6.21      12.99
C      16.22       5.86      14.35
C      15.47       4.82      14.96
C      14.55       4.05      14.19
C      14.41       4.38      12.81
C      15.14       5.46      12.24
C      16.87       7.25      12.44
C      13.83       2.95      14.76
C      28.10      17.46      21.29
C      28.79      17.59      22.53
C      29.23      16.47      23.29
C      28.97      15.15      22.82
C      28.31      15.00      21.57
C      27.90      16.14      20.83
C      27.62      18.60      20.59
C      29.23      14.00      23.63
C      27.10      11.03       3.22
C      26.87      10.37       4.45
C      25.67      10.55       5.21
C      24.66      11.44       4.75
C      24.86      12.08       3.49
C      26.05      11.86       2.75
C      28.33      10.88       2.52
C      23.53      11.79       5.55
C      22.03      15.12      12.26
C      21.57      15.65      13.49
C      22.33      16.59      14.25
C      23.60      17.03      13.78
C      24.06      16.53      12.53
C      23.27      15.61      11.79
C      21.28      14.13      11.55
C      24.47      17.83      14.59
H       6.61       9.77      25.07
H      31.03      10.49       1.35
H      32.98      12.36       1.87
H       7.86      11.92       2.71
H      32.63      13.42      24.24
H       7.22      12.48      25.10
H      28.00      14.04      25.83
H      27.43      13.09      27.02
H      10.73       8.22       1.03
H      10.47       7.65      26.63
H      17.96      10.59       6.99
H      19.59      11.99      10.38
H      20.24       9.36      10.91
H      19.19       8.44      11.76
H      21.33       9.13       6.16
H      20.01       8.71       7.03
H      24.18      12.83       7.75
H      23.64      13.81       8.94
H      14.56       7.81      10.07
H      14.20       8.31       8.56
H      13.00       0.35      16.03
H      26.61      21.14      19.42
H      24.02      21.89      19.95
H      10.53       0.36      20.80
H      23.26      21.06      15.20
H      23.56      22.42      16.07
H      25.05      16.74      16.79
H      26.16      16.72      17.98
H      12.29       4.70      19.11
H      12.90       4.76      17.60
H       9.87       3.39      23.96
H      10.21       5.37      20.29
H      10.67       2.14      22.07
H       8.05       8.47      23.19
H      10.80      10.96       5.88
H      12.35       9.68       2.21
H       9.32      10.89       3.99
H      16.12      10.00       5.12
H      16.90       6.37      14.92
H      15.01       5.67      11.25
H      17.58       7.68      13.04
H      13.41       2.25      14.15
H      28.94      18.53      22.91
H      27.44      16.00      19.93
H      27.76      19.54      20.99
H      28.65      13.17      23.47
H      27.60       9.77       4.84
H      26.16      12.34       1.85
H      29.06      10.29       2.92
H      23.10      12.70       5.39
H      20.69      15.31      13.87
H      23.63      15.28      10.89
H      20.41      13.79      11.95
H      25.48      17.75      14.43
N      10.19       8.26       0.22
N      28.15      13.27      26.40
N       7.26      11.73       1.98
N      32.75      12.77      24.94
N      28.60      11.54       1.36
N      30.23      13.84      24.53
N       9.68      10.08       2.16
N       8.65       8.10      25.09
N      14.86       8.25       9.27
N      23.44      13.09       8.32
N      19.33       9.05      11.02
N      20.71       9.36       6.87
N      21.72      13.56      10.40
N      22.89      11.00       6.46
N      16.69       7.79      11.20
N      15.49       9.66       7.01
N      12.52       4.21      18.30
N      25.64      17.25      17.36
N      24.20      22.84      20.06
N      23.77      21.49      15.90
N      26.91      18.52      19.44
N      24.10      18.78      15.49
N      11.20       2.85      20.24
N      13.42       2.96      16.05
N       8.82       5.34      25.35
N       9.27       7.71      21.06
N      13.02      10.89       7.27
N      14.85       9.32       2.98
N      15.73       4.48      16.31
N      13.45       3.69      12.02
N      29.78      16.66      24.57
N      28.14      13.71      21.01
N      25.56       9.98       6.50
N      23.83      12.88       2.94
N      21.88      16.98      15.54
N      25.26      17.03      11.97
O       9.75       5.03      26.12
O      10.39       8.13      20.67
O       7.87       4.52      25.51
O       8.53       7.53      20.06
O      12.28      10.23       8.05
O      14.65       8.15       2.58
O      12.78      12.12       7.43
O      15.06      10.05       1.98
O      15.53       5.45      17.09
O      12.53       4.45      11.63
O      16.91       4.07      16.47
O      13.98       3.14      11.02
O      28.96      17.20      25.36
O      28.81      13.57      19.96
O      30.83      17.35      24.54
O      26.94      13.45      20.76
O      26.44      10.42       7.28
O      23.37      12.36       1.88
O      25.64       8.72       6.46
O      24.21      14.05       2.68
O      21.82      16.00      16.32
O      25.04      17.68      10.92
O      20.76      17.54      15.50
O      26.09      16.12      11.72
