44

H      13.08       5.15      11.84
H       9.04       5.52      14.62
H       5.23       4.04      12.79
H      15.08       7.08      14.41
H      13.52       7.67      13.73
H      14.59       6.55      12.78
H       3.85       2.90      11.35
H       5.13       2.25      10.22
H       3.55       2.82       9.59
H       8.69       2.43      13.98
H       6.91       2.02      13.83
H       7.64       2.38      15.43
H       7.96       2.16       9.43
H       9.18       1.43       8.35
H       9.59       1.64      10.08
H      11.75       4.26      10.00
C       7.21       4.74      10.11
C       7.18       5.23       8.71
C       8.52       4.61      12.15
C       8.45       4.52      10.75
C      11.21       5.54      16.09
C      12.20       5.17      12.46
C      11.17       5.47      14.63
C       6.03       4.47      10.83
C       6.11       4.27      12.22
C       7.34       4.35      12.89
C      14.20       6.79      13.80
C       9.79       4.90      12.72
C       4.33       3.02      10.35
C       7.66       2.66      14.36
C       9.05       2.11       9.22
C      10.96       4.85      11.92
C      10.87       4.42      10.59
C       9.62       4.14      10.05
C       9.92       5.31      14.04
C      12.33       5.47      13.82
O       4.83       4.33      10.17
O       7.36       4.03      14.23
O       9.58       3.38       8.89
O       6.04       5.45       8.11
O       8.31       5.45       8.11
O      10.07       5.52      16.72
O      12.34       5.52      16.72
O      13.58       5.68      14.39
