30

H       4.31       8.73       5.50
C      10.49      12.05       5.87
C       9.19       9.30       3.65
H      10.51      11.16       6.53
H      10.63      12.95       6.50
H      11.36      11.98       5.19
H       2.48       9.80       6.65
O       5.98       7.40       6.21
O       9.32      12.19       5.09
O       9.32       9.45       5.04
H       2.85      11.90       7.91
O       8.25       7.40       6.21
H       9.00      10.27       3.14
H       8.38       8.57       3.40
H      10.15       8.91       3.25
H       5.03      12.98       7.84
O       6.03      14.22       6.21
O       8.31      14.22       6.21
C       7.10       8.01       6.08
C       4.54       9.61       6.07
C       3.47      10.25       6.69
C       3.67      11.44       7.38
C       4.92      12.05       7.32
C       5.99      11.47       6.59
C       5.85      10.15       6.16
C       7.04       9.44       5.86
C       8.21      10.12       5.52
C       8.27      11.50       5.67
C       7.16      12.17       6.24
C       7.17      13.61       6.25
