40

C       5.04       5.28       8.53
C       3.89       8.90       6.27
C       2.44      12.39       8.15
C       0.35      15.55       8.16
C       0.75      14.13       8.32
C       5.97       6.15       9.10
C       1.55      11.49       8.74
H      -0.41      11.16       9.57
O       5.83       1.15       8.79
C       7.24       4.28       9.96
H       2.73      14.43       7.52
O       4.43       8.13       4.05
H       2.15      10.15       6.44
H       5.64       7.63       6.39
C       7.09       5.65       9.78
H       4.17       5.67       8.01
O       1.31      16.39       8.06
C       6.42       1.92       9.64
C       2.04      13.71       7.95
C       6.31       3.39       9.40
O       5.85       7.53       9.08
H       8.09       3.89      10.52
O       2.97       9.85       4.33
C       4.84       8.13       8.34
H      -1.13      13.53       9.20
O       1.91      10.20       9.10
O      -0.89      15.85       8.13
H       7.81       6.36      10.19
C       0.26      11.89       9.11
C       4.87       8.16       6.94
O       7.07       1.48      10.65
H       4.53       3.23       8.19
C       2.90       9.55       8.37
H       3.86       8.79      10.16
H       3.44      12.08       7.88
C       2.90       9.60       6.98
C       3.86       8.81       9.07
C      -0.14      13.20       8.90
C       3.79       8.94       4.77
C       5.24       3.90       8.67
