40

C      -0.24       8.14       7.11
C      -0.59       8.05       8.45
C       1.67       4.13       9.99
C       1.55       5.51       9.88
H       2.50       3.70      10.53
H      -1.41       5.65       8.15
H      -5.90      10.94       9.42
O      -3.90      16.20       8.20
H      -1.12       3.17       8.27
H      -3.03       9.76       5.97
O       0.28       7.42       9.35
C      -0.53       5.22       8.64
O       1.04       1.47      10.85
C      -5.49      13.01       8.94
C      -4.84      15.39       8.44
O      -1.70       8.93       3.94
H      -2.00       8.59      10.01
O      -3.78       9.82       8.55
C      -5.21      11.65       8.96
H       2.29       6.17      10.32
H      -2.68      14.14       7.39
C      -0.76       8.90       4.78
C      -3.10      12.07       7.81
O       0.50       8.99       4.55
O      -6.04      15.72       8.75
H       0.70       7.73       6.75
H      -6.40      13.39       9.39
C       0.77       1.83       9.68
C      -1.76       8.63       8.95
C      -3.39      13.43       7.81
C       0.42       6.04       9.25
C      -4.01      11.18       8.40
C      -2.62       9.27       8.04
O       0.54       1.00       8.69
H      -2.17      11.71       7.40
C      -2.34       9.30       6.68
C      -4.57      13.92       8.38
C      -1.13       8.77       6.22
C      -0.37       3.83       8.70
C       0.70       3.28       9.41
