40

C       0.32       0.12      15.43
C       2.60      -3.04      18.51
C       3.50      -2.15      19.10
C       4.71      -2.61      19.65
H       2.57      -0.74      16.67
C       0.05       3.85      19.31
H       0.66       5.90      18.98
C      -1.23       7.24      20.39
C       0.10       1.02      19.08
H       0.92       3.42      18.82
C      -2.13       4.94      20.69
O      -0.80       1.63      19.95
H       5.39      -1.90      20.11
O      -1.50       7.62      21.55
O      -1.01       8.07      19.40
O       3.27      -0.79      19.26
H       1.47       0.46      20.67
C       4.37      -6.35      19.13
H       5.91      -4.35      20.07
C       2.90      -4.40      18.50
O       1.25       0.08      14.58
C       4.99      -3.97      19.63
C       1.87      -0.26      17.35
O       3.44      -7.18      18.92
O       5.58      -6.65      19.40
H       2.18      -5.11      18.09
C      -0.09       5.23      19.40
O      -0.94       0.02      15.20
H       1.67      -2.68      18.09
H      -1.16       1.33      17.36
C      -0.22       0.91      17.73
C      -2.03       3.56      20.55
C       1.25       0.42      19.61
C       4.08      -4.88      19.07
C       2.12      -0.23      18.72
H      -2.78       2.90      20.99
H      -2.97       5.37      21.23
C      -1.16       5.79      20.12
C       0.67       0.27      16.87
C      -0.91       3.02      19.90
