40

C      10.18      17.89       5.88
C       6.44      22.90       2.26
C      11.41      15.03       1.44
C       7.87      21.02       2.83
C      10.37      17.02       2.22
C       5.51      22.01       1.70
C      12.53      14.50       0.80
H       5.06      19.94       1.23
C       5.76      20.64       1.69
O      12.04      10.45      -0.20
C      10.46      14.19       2.05
H       8.97      17.56       0.65
O      11.45      17.98       6.10
O       9.24      17.92       6.73
H       8.34      23.09       3.25
C       6.95      20.15       2.24
C       6.23      24.38       2.18
H       9.59      14.61       2.54
O      11.55       9.98       1.96
O       5.07      24.77       1.82
O       7.16      18.78       2.10
H       4.61      22.40       1.25
C      10.71      17.13       3.57
H       8.80      20.65       3.25
C      11.70      12.27       1.25
O      11.26      16.40       1.35
H       9.88      12.13       2.39
H      13.50      12.70       0.13
O       7.22      25.13       2.45
H      11.65      16.73       3.93
H       7.89      18.72       4.68
C      11.77      10.81       0.97
C       9.81      17.75       4.44
C      10.62      12.80       1.97
C       8.59      18.26       3.98
H      13.27      15.17       0.37
C       7.61      22.39       2.84
C       9.20      17.59       1.72
C       8.33      18.22       2.61
C      12.66      13.12       0.68
