61

C      13.60       4.81      19.84
C      13.81       5.89      21.90
C      13.62       6.00      20.54
C       7.98       6.95      16.27
C       9.31       7.07      17.04
C       9.37       6.75      18.51
C      10.42       7.35      16.38
C      10.60       6.93      19.09
C      11.54       7.49      17.03
C      11.72       7.35      18.39
C      12.64      12.18      23.46
N      15.11       0.97      24.15
N      14.66       0.31      23.02
C      14.11      10.37      22.20
C      11.74      10.70      21.69
C      14.09       9.33      21.31
C      11.82       9.70      20.85
N      15.00       2.27      23.93
C      12.77      11.03      22.44
C      12.95       8.93      20.63
N       6.47       7.08      14.78
N       6.01       6.43      15.91
N       7.73       7.41      15.00
N       6.94       6.33      16.87
N      14.25       1.16      22.06
C      17.87       8.49      15.48
C      16.73       8.23      16.50
N      11.87      13.66      24.76
N      13.25      13.67      24.76
N      11.48      12.73      23.92
N      13.78      12.74      23.94
C      14.70       7.69      18.30
C      14.69       8.90      17.63
C      15.80       6.89      18.08
C      15.67       9.26      16.74
C      16.77       7.14      17.24
N      19.52       8.26      14.17
N      18.77       7.57      15.01
N      18.01       9.74      14.99
N      19.06       9.56      14.17
H      13.79       2.78      19.94
H      14.15       4.80      23.49
H      13.42       4.84      18.91
H      13.76       6.69      22.41
H       8.62       6.43      18.99
H      10.40       7.44      15.44
H      10.68       6.77      20.02
H      12.31       7.71      16.52
Si      13.24       7.49      19.47
H      14.90      10.65      22.63
H      10.93      11.19      21.76
H      14.89       8.86      21.15
H      11.05       9.49      20.35
H      15.67      10.11      16.30
H      17.50       6.54      17.17
H      13.98       9.50      17.79
H      15.86       6.08      18.58
C      14.49       2.35      22.67
C      14.16       3.64      21.89
C      13.83       3.59      20.42
C      14.05       4.78      22.55
