61

H      -0.22       9.06      16.90
H       1.61      11.60      14.25
H      -1.91      10.65      17.12
C      -1.40      18.46      13.37
C      -1.73      17.14      14.10
C      -2.06      15.89      13.32
C      -1.84      17.14      15.42
C      -2.29      14.78      14.08
C      -2.08      16.02      16.05
C      -2.27      14.78      15.47
H      -0.03      13.05      14.56
H      -1.00      13.88      18.24
H      -0.99      14.27      20.54
H      -4.97      13.25      20.57
H      -4.85      12.88      18.39
C      -7.92      10.61      14.16
C      -6.58      11.22      14.65
C      -6.52      12.66      15.10
C      -5.47      10.51      14.56
C      -5.30      13.07      15.55
C      -4.35      11.00      15.00
C      -4.18      12.25      15.56
N      -0.78      20.43      12.91
N      -1.24      19.78      11.78
N      -0.89      19.59      13.93
N      -1.64      18.52      12.04
N      -9.42       9.26      13.52
N      -9.89      10.56      13.52
N      -8.16       9.29      13.91
N      -8.95      11.45      13.92
C       1.97       9.16      15.09
C       0.84      10.17      15.37
C      -0.23       9.86      16.39
C       0.88      11.36      14.80
C      -1.20      10.81      16.52
C      -0.09      12.21      15.00
C      -1.20      12.00      15.81
C      -3.25      14.22      22.28
C      -3.12      13.92      20.77
C      -1.79      14.04      20.08
C      -4.16      13.43      20.11
C      -1.81      13.79      18.73
C      -4.07      13.21      18.83
C      -2.95      13.40      18.05
H      -2.10      15.88      12.38
H      -1.75      17.95      15.90
H      -2.47      13.96      13.64
H      -2.13      16.07      17.00
H      -7.28      13.23      15.07
H      -5.49       9.65      14.17
H      -5.21      13.95      15.88
H      -3.58      10.45      14.94
N       2.88       9.22      14.06
N       2.12       8.11      15.93
N       3.63       8.15      14.24
N       3.17       7.49      15.36
N      -4.02      14.61      24.21
N      -2.64      14.61      24.22
N      -4.42      14.35      22.98
N      -2.12      14.37      23.00
Si      -2.65      13.11      16.22
