61

C       7.34      27.17       2.50
C       7.48      26.01       3.52
C       8.81      25.35       3.76
C       6.44      25.68       4.27
C       8.79      24.31       4.65
C       6.52      24.69       5.10
C       7.65      23.91       5.32
C      12.57      23.47      10.48
C      11.44      23.21       9.46
C      10.37      24.25       9.22
C      11.47      22.12       8.71
C       9.40      23.88       8.33
C      10.50      21.87       7.88
C       9.40      22.67       7.65
N       6.57      28.65       1.20
N       7.96      28.65       1.19
N       6.18      27.71       2.04
N       8.48      27.72       2.01
C       8.86      18.63       4.06
C       8.53      18.58       5.53
C       8.75      19.77       3.41
C       8.30      19.79       6.12
C       8.51      20.87       4.05
C       8.32      20.99       5.42
C       9.20      17.33       3.29
N      13.47      22.55      10.94
N      12.71      24.73      10.97
N      14.22      23.24      11.78
N      13.77      24.54      11.79
N       9.82      15.95       1.80
N       9.36      15.30       2.93
N       9.70      17.25       2.02
N       8.95      16.15       3.90
C       4.08      21.73       7.44
C       5.30      21.92       6.86
C       6.25      22.48       8.93
C       6.42      22.33       7.56
C       4.01      22.06       8.91
C       2.68      21.94       9.69
C       5.12      22.33       9.57
N       2.43      22.39      10.96
N       1.64      21.32       9.08
N       1.17      22.07      11.17
N       0.71      21.41      10.05
H       9.60      25.64       3.32
H       5.63      26.17       4.20
H       9.60      23.84       4.81
H       5.75      24.47       5.60
H      10.37      25.09       9.66
Si       7.95      22.48       6.49
H       8.68      24.49       8.17
H      10.56      21.07       7.38
H      12.20      21.53       8.78
H       8.49      17.76       6.02
H       8.85      19.78       2.46
H       8.12      19.82       7.05
H       8.46      21.67       3.54
H       3.32      21.42       6.96
H       5.11      22.43      10.51
H       5.38      21.76       5.93
H       7.01      22.70       9.44
