30

Mn       1.67       8.89       2.92
Mn       5.06      11.22      -2.89
Mn       3.36      10.06       0.02
Mn      -0.00      10.06       0.02
H       1.69       8.22       0.31
H       5.04      11.91      -0.27
C       5.04       8.20       3.23
C       1.69      11.89      -3.22
S       1.69       6.93       5.53
S       5.05       8.14      -2.21
S       5.05      13.14      -5.53
S       1.68      11.97       2.21
N       4.38       9.21       1.45
N       3.92       8.58       2.56
N       1.01      10.90      -1.43
N       0.56      11.52      -2.55
N       2.34      10.90      -1.42
N       2.81      11.51      -2.54
N      -1.02       9.21       1.45
N      -0.56       8.58       2.57
O       3.80       8.30      -1.40
O       0.47      11.87       1.35
O       2.94      11.81       1.41
O      -0.46       8.26      -1.34
O       1.70       8.27       4.85
O       1.69       9.10       0.73
O       5.10       9.21      -3.29
O       5.03      11.80      -4.84
O       5.04      11.02      -0.68
O       1.64      10.91       3.29
