36

Mn       5.06       6.59      10.68
Mn       1.68       3.80       4.87
Mn       3.37       5.17       7.78
Mn       6.73       5.19       7.77
H       0.82       8.23      12.74
H       4.19       2.15       2.81
H       5.90       2.15       2.80
H       2.53       8.23      12.74
H       5.03       7.19       8.07
H       1.68       3.17       7.45
C       1.68       7.36      11.10
C       5.05       3.02       4.44
S       1.69       6.93       5.53
S       5.06       8.47      13.33
S       5.06       3.43      10.01
S       1.68       1.94       2.21
N       2.34       6.21       9.41
N       2.80       6.92      10.46
N       5.71       4.15       6.14
N       6.18       3.45       5.09
N       4.40       4.16       6.14
N       3.93       3.45       5.09
N       7.76       6.22       9.40
N       7.29       6.93      10.45
N       1.68       8.16      12.19
N       5.05       2.21       3.36
O       2.91       6.83       6.39
O       6.31       3.53       9.19
O       3.83       3.53       9.14
O       7.16       6.83       6.35
O       1.70       5.85       4.48
O       5.04       7.13      12.65
O       5.04       6.33       8.53
O       5.04       4.52      11.05
O       1.70       3.28       2.89
O       1.69       4.04       7.00
