44

Nd       1.70       6.14       3.92
Nd       1.44       0.01       8.99
H       0.14       2.93       4.50
H       3.14       7.67       1.08
H       2.95       7.61       6.91
H       2.99       3.22       8.42
H       0.01      -1.49      11.85
H       0.21      -1.45       5.97
C       2.51       4.04       6.48
C       0.80       2.98       5.36
C       0.75       5.45       0.77
C       2.45       6.98       0.60
C       0.43       8.99       5.32
C       2.15       8.32       6.68
C      -0.51       5.04       6.48
C      -0.32       4.78       1.59
C      -0.50       8.74       4.19
C       0.63       2.10       6.45
C       2.33       3.15       7.56
C       2.41       0.71      12.15
C       0.71      -0.81      12.32
C       2.72      -2.82       7.57
C       1.00      -2.15       6.21
C       3.65       1.11       6.45
C       3.47       1.37      11.33
C       3.64      -2.58       8.72
N       1.72       3.95       5.39
N       1.58       6.32       1.37
N       1.41       8.11       5.58
N       1.41       2.19       7.54
N       1.58      -0.16      11.55
N       1.74      -1.95       7.32
O      -0.45       5.73       5.37
O      -0.28       5.09       2.87
O      -0.35       7.59       3.56
O       2.71       9.54       4.01
O       0.29       5.09       7.42
O       2.96       4.10       1.03
O       3.58       0.42       7.57
O       3.45       1.05      10.05
O       3.46      -1.45       9.36
O       0.44      -3.36       8.88
O       2.85       1.05       5.51
O       0.20       2.05      11.90
