624

Cu       0.64       0.40       4.61
Cu       0.71       0.03       7.12
Cu      12.14      12.37      35.58
Cu      12.07      12.72      38.09
Cu       6.79       5.70      20.09
Cu       6.45       5.67      22.60
Cu       5.98       7.04      51.07
Cu       6.33       7.07      53.58
Cu       7.06       5.97      10.87
Cu       7.10       6.32       8.36
Cu       5.72       6.77      41.84
Cu       5.68       6.42      39.32
Cu       0.39       0.63      57.32
Cu       0.05       0.70      54.81
Cu      12.39      12.11      26.35
Cu      12.73      12.04      23.84
H       6.56       0.70      55.47
H       4.81       2.51      55.33
H       4.75       4.57      53.90
H       8.03       6.19      55.84
H       8.23       4.21      57.36
H       8.28      11.61      54.99
H       8.04       9.55      53.57
H       5.17       7.98      56.09
H       5.31       9.94      57.64
H       5.15       4.13      58.47
H       5.56       4.55      60.16
H       4.69       3.02      59.80
H       8.70      10.30      58.16
H       8.38       9.51      59.74
H       9.17      11.13      59.67
H       7.10       0.78       2.74
H      10.49      11.84       0.65
H      12.44      11.75       2.19
H      11.02       2.19       4.42
H       8.96       2.37       3.00
H       5.39      11.89       3.15
H       3.31      11.81       4.55
H       1.49       2.00       2.28
H       3.46       2.18       0.76
H       9.18       2.48      59.82
H      10.77       1.68      59.69
H      10.27       2.43      61.26
H       4.80      11.50      60.17
H       3.23      12.31      59.90
H       3.66      11.73      61.54
H       6.22      12.06      24.48
H       7.96      10.24      24.35
H       8.06       8.17      22.94
H       4.75       6.56      24.82
H       4.52       8.54      26.33
H       4.49       1.14      24.03
H       4.73       3.19      22.61
H       7.63       4.75      25.12
H       7.49       2.79      26.66
H       7.61       8.63      27.50
H       7.13       8.18      29.17
H       7.99       9.73      28.87
H       4.09       2.45      27.19
H       4.40       3.22      28.79
H       3.61       1.60      28.70
H       5.67      11.99      33.70
H       2.26       0.89      31.59
H       0.31       0.98      33.14
H       1.76      10.59      35.41
H       3.82      10.41      33.99
H       7.38       0.83      34.12
H       9.46       0.93      35.51
H      11.29      10.75      33.24
H       9.33      10.56      31.73
H       3.59      10.25      28.86
H       1.99      11.06      28.72
H       2.50      10.31      30.28
H       7.99       1.18      29.22
H       9.56       0.36      28.94
H       9.13       0.93      30.59
H       7.09      12.59       9.00
H       8.89       1.57       8.85
H      10.96       1.64       7.44
H      12.59      11.11       9.36
H      10.60      10.90      10.87
H       5.26      10.86       8.52
H       3.19      11.08       7.13
H       1.62       1.21       9.64
H       3.59       1.07      11.18
H      10.48       1.23      12.00
H      10.94       0.77      13.68
H       9.39       1.63      13.37
H       3.96      10.44      11.69
H       3.17      10.75      13.28
H       4.79       9.94      13.19
H       7.14      12.00      18.21
H       5.51       8.62      16.11
H       5.40       6.67      17.66
H       8.55       8.11      19.94
H       8.74      10.17      18.52
H       5.52       0.98      18.63
H       5.44       3.06      20.02
H       8.40       4.85      17.74
H       8.55       2.88      16.22
H       8.92       9.96      13.36
H       8.14       8.36      13.21
H       8.89       8.85      14.77
H       5.17       1.58      13.74
H       6.00       3.14      13.44
H       5.43       2.73      15.10
H       5.67       0.14      39.98
H       3.86      11.16      39.85
H       1.80      11.10      38.44
H       0.20       1.66      40.33
H       2.18       1.85      41.85
H       7.50       1.87      39.49
H       9.57       1.64      38.08
H      11.17      11.54      40.61
H       9.20      11.67      42.15
H       2.27      11.56      42.98
H       1.83      11.98      44.67
H       3.37      11.10      44.33
H       8.83       2.32      42.65
H       9.61       2.01      44.24
H       8.00       2.82      44.16
H       5.64       0.73      49.19
H       7.27       4.14      47.08
H       7.36       6.09      48.62
H       4.23       4.64      50.91
H       4.05       2.58      49.50
H       7.27      11.75      49.61
H       7.34       9.67      51.00
H       4.38       7.89      48.72
H       4.22       9.86      47.20
H       3.88       2.79      44.31
H       4.64       4.40      44.21
H       3.89       3.86      45.75
H       7.60      11.17      44.70
H       6.77       9.61      44.41
H       7.35      10.02      46.05
H       0.17       5.66      21.95
H      11.18       3.85      22.08
H      11.10       1.79      23.49
H       1.65       0.18      21.61
H       1.86       2.15      20.09
H       1.90       7.49      22.44
H       1.66       9.56      23.85
H      11.54      11.12      21.32
H      11.68       9.15      19.79
H      11.57       2.26      18.96
H      11.99       1.81      17.27
H      11.12       3.35      17.60
H       2.34       8.81      19.28
H       2.03       9.60      17.70
H       2.83       7.98      17.77
H       0.75       5.64      12.74
H       4.16       7.25      14.86
H       6.11       7.35      13.30
H       4.65       4.21      11.03
H       2.59       4.04      12.44
H      11.78       7.25      12.34
H       9.70       7.33      10.94
H       7.92       4.36      13.21
H       9.88       4.20      14.73
H       2.80       3.86      17.62
H       4.41       4.63      17.74
H       3.88       3.88      16.18
H      11.19       7.58      17.24
H       9.63       6.76      17.53
H      10.04       7.33      15.87
H      12.62       7.08      52.92
H       1.61       8.90      53.05
H       1.69      10.97      54.46
H      11.12      12.55      52.60
H      10.90      10.58      51.07
H      10.91       5.26      53.43
H      11.14       3.19      54.83
H       1.22       1.60      52.28
H       1.08       3.57      50.74
H       1.20      10.50      49.93
H       0.79      10.92      48.23
H       1.66       9.39      48.60
H      10.41       3.92      50.23
H      10.75       3.14      48.65
H       9.94       4.75      48.71
H      12.03       7.11      43.71
H       8.63       5.48      45.82
H       6.68       5.39      44.28
H       8.12       8.52      42.00
H      10.18       8.71      43.41
H       0.99       5.52      43.29
H       3.08       5.44      41.90
H       4.88       8.37      44.19
H       2.91       8.53      45.72
H       9.98       8.87      48.58
H       8.36       8.11      48.70
H       8.89       8.86      47.15
H       1.59       5.17      48.22
H       3.16       5.99      48.48
H       2.72       5.41      46.84
H       0.73       6.56       6.47
H       2.52       4.83       6.62
H       4.59       4.73       8.02
H       6.22       8.01       6.11
H       4.25       8.22       4.58
H      11.63       8.29       6.93
H       9.57       8.05       8.34
H       8.03       5.13       5.86
H      10.00       5.26       4.32
H       4.15       5.16       3.46
H       4.58       5.59       1.78
H       3.05       4.70       2.12
H      10.31       8.68       3.77
H       9.54       8.35       2.18
H      11.15       9.15       2.26
H       0.74       7.08      59.20
H      11.91      10.50      61.33
H      11.82      12.46      59.78
H       2.16      10.98      57.47
H       2.33       8.91      58.88
H      11.89       5.35      58.79
H      11.80       3.27      57.41
H       2.03       1.49      59.64
H       2.21       3.46      61.15
H       2.51       9.17       2.11
H       1.71      10.77       2.26
H       2.46      10.27       0.69
H      11.58       4.76       1.75
H      12.40       3.20       2.03
H      11.83       3.62       0.39
H      12.06       6.21      37.44
H      10.26       7.92      37.58
H       8.20       8.01      39.00
H       6.56       4.73      37.08
H       8.55       4.51      35.56
H       1.13       4.49      37.91
H       3.20       4.72      39.32
H       4.77       7.60      36.81
H       2.81       7.46      35.27
H       8.62       7.55      34.42
H       8.21       7.12      32.73
H       9.73       8.01      33.08
H       2.45       4.07      34.74
H       3.24       4.39      33.16
H       1.61       3.60      33.22
H      12.01       5.65      28.23
H       0.89       2.25      30.34
H       0.98       0.30      28.79
H      10.59       1.74      26.53
H      10.43       3.81      27.94
H       0.89       7.38      27.82
H       0.98       9.47      26.44
H      10.75      11.24      28.67
H      10.58       9.28      30.19
H      10.28       3.57      33.11
H      11.07       1.96      33.20
H      10.31       2.51      31.66
H       1.25       7.96      32.72
H       0.44       9.53      33.02
H       1.01       9.12      31.37
C       6.91       0.69      59.32
C       6.76       1.91      58.63
C       6.66       1.92      57.23
C       6.66       0.70      56.55
C       6.81      12.22      57.21
C       6.96      12.24      58.61
C       6.55       3.17      56.44
C       5.57       3.29      55.46
C       5.52       4.43      54.66
C       7.34       5.35      55.76
C       7.45       4.24      56.60
C       6.77      10.98      56.41
C       7.55      10.85      55.25
C       7.43       9.70      54.47
C       5.84       8.81      55.89
C       5.92       9.91      56.74
C       5.45       3.72      59.44
C       8.43      10.47      59.21
C       6.99       0.69      60.80
C       8.22       0.67      61.47
C       8.27       0.73       0.94
C       7.07       0.76       1.65
C       5.82       0.74       1.02
C       5.79       0.71      61.54
C       9.53       0.73       1.71
C      10.57      12.55       1.47
C      11.67      12.50       2.32
C      10.85       1.52       3.58
C       9.71       1.61       2.78
C       4.60       0.68       1.84
C       4.55      12.55       2.93
C       3.40      12.50       3.71
C       2.37       1.38       2.43
C       3.47       1.48       1.59
C       9.93       1.89      60.36
C       4.05      12.17      60.61
C       5.85      12.04      28.34
C       5.98      10.83      27.63
C       6.09      10.82      26.23
C       6.10      12.05      25.56
C       5.96       0.52      26.23
C       5.81       0.50      27.63
C       6.20       9.58      25.44
C       7.21       9.46      24.47
C       7.27       8.31      23.69
C       5.44       7.40      24.76
C       5.31       8.51      25.59
C       6.00       1.77      25.45
C       5.22       1.90      24.29
C       5.34       3.04      23.50
C       6.95       3.93      24.91
C       6.87       2.83      25.77
C       7.26       9.01      28.47
C       4.35       2.27      28.24
C       5.78      12.03      29.82
C       4.55      12.06      30.50
C       4.50      12.02      31.91
C       5.71      12.00      32.62
C       6.95      11.99      31.98
C       6.98      11.99      30.57
C       3.24      12.03      32.67
C       2.19       0.19      32.43
C       1.10       0.24      33.28
C       1.93      11.26      34.56
C       3.07      11.16      33.77
C       8.18      12.06      32.80
C       8.22       0.18      33.90
C       9.37       0.24      34.68
C      10.41      11.37      33.39
C       9.31      11.26      32.56
C       2.84      10.85      29.39
C       8.74       0.50      29.65
C       7.11      12.19      12.85
C       8.32      12.34      12.15
C       8.32      12.46      10.75
C       7.10      12.47      10.08
C       5.87      12.32      10.74
C       5.90      12.16      12.14
C       9.57      12.58       9.96
C       9.67       0.82       8.98
C      10.82       0.87       8.19
C      11.75      11.80       9.28
C      10.64      11.69      10.12
C       4.63      12.36       9.95
C       4.49      11.58       8.79
C       3.34      11.69       8.02
C       2.44       0.53       9.44
C       3.54       0.46      10.28
C      10.10       0.90      12.97
C       4.13      10.70      12.74
C       7.12      12.11      14.33
C       7.10      10.88      15.01
C       7.13      10.83      16.42
C       7.14      12.04      17.13
C       7.12       0.52      16.49
C       7.13       0.55      15.08
C       7.12       9.57      17.19
C       6.20       8.54      16.94
C       6.15       7.45      17.80
C       7.89       8.28      19.09
C       7.99       9.41      18.29
C       7.05       1.75      17.30
C       6.18       1.81      18.40
C       6.13       2.96      19.18
C       7.77       3.97      17.90
C       7.86       2.87      17.06
C       8.33       9.20      13.89
C       5.85       2.33      14.16
C       5.68       0.56      43.83
C       4.46       0.40      43.14
C       4.45       0.28      41.74
C       5.67       0.27      41.06
C       6.90       0.42      41.72
C       6.88       0.60      43.12
C       3.20       0.16      40.95
C       3.09      11.92      39.98
C       1.94      11.87      39.19
C       1.03       0.96      40.26
C       2.14       1.07      41.10
C       8.15       0.38      40.93
C       8.28       1.15      39.76
C       9.42       1.03      38.98
C      10.33      12.21      40.41
C       9.23      12.29      41.25
C       2.66      11.86      43.96
C       8.65       2.06      43.71
C       5.67       0.63      45.31
C       5.69       1.86      45.99
C       5.66       1.91      47.40
C       5.64       0.70      48.10
C       5.66      12.22      47.46
C       5.66      12.19      46.06
C       5.66       3.17      48.17
C       6.57       4.21      47.92
C       6.62       5.30      48.77
C       4.89       4.47      50.06
C       4.80       3.34      49.27
C       5.73      10.99      48.28
C       6.60      10.92      49.38
C       6.65       9.78      50.16
C       5.01       8.76      48.88
C       4.92       9.87      48.04
C       4.45       3.54      44.86
C       6.92      10.42      45.12
C       0.58       5.66      18.10
C       0.42       4.45      18.79
C       0.30       4.43      20.19
C       0.30       5.66      20.87
C       0.45       6.89      20.21
C       0.61       6.87      18.82
C       0.18       3.19      20.98
C      11.93       3.07      21.96
C      11.88       1.93      22.74
C       0.95       1.01      21.67
C       1.07       2.12      20.83
C       0.40       8.13      21.01
C       1.18       8.26      22.17
C       1.05       9.41      22.95
C      12.22      10.29      21.53
C      12.30       9.19      20.68
C      11.87       2.64      17.97
C       2.08       8.64      18.23
C       0.65       5.66      16.62
C       1.88       5.68      15.95
C       1.93       5.65      14.54
C       0.72       5.64      13.83
C      12.24       5.64      14.47
C      12.21       5.63      15.88
C       3.19       5.65      13.77
C       4.23       6.56      14.02
C       5.32       6.61      13.16
C       4.49       4.88      11.88
C       3.35       4.79      12.67
C      11.01       5.71      13.66
C      10.95       6.59      12.56
C       9.80       6.64      11.78
C       8.79       5.00      13.06
C       9.89       4.90      13.90
C       3.56       4.44      17.07
C      10.44       6.90      16.81
C      12.19       7.08      49.07
C      12.36       8.29      49.76
C      12.48       8.31      51.17
C      12.49       7.08      51.84
C      12.33       5.85      51.18
C      12.16       5.87      49.79
C      12.60       9.55      51.96
C       0.85       9.68      52.93
C       0.91      10.82      53.71
C      11.82      11.72      52.65
C      11.70      10.62      51.81
C      12.38       4.61      51.98
C      11.62       4.48      53.15
C      11.74       3.34      53.93
C       0.55       2.44      52.49
C       0.47       3.54      51.64
C       0.90      10.10      48.95
C      10.69       4.10      49.18
C      12.13       7.08      47.59
C      10.90       7.07      46.92
C      10.85       7.10      45.51
C      12.06       7.11      44.80
C       0.54       7.11      45.44
C       0.56       7.11      46.85
C       9.59       7.09      44.73
C       8.56       6.18      44.99
C       7.46       6.13      44.14
C       8.29       7.86      42.85
C       9.42       7.96      43.64
C       1.77       7.04      44.62
C       1.83       6.18      43.52
C       2.98       6.13      42.74
C       4.00       7.74      44.03
C       2.90       7.84      44.88
C       9.21       8.30      48.04
C       2.34       5.84      47.78
C       0.72       6.92       2.62
C       1.93       6.77       3.31
C       1.95       6.67       4.71
C       0.72       6.67       5.39
C      12.26       6.81       4.73
C      12.27       6.96       3.33
C       3.20       6.56       5.50
C       3.31       5.57       6.49
C       4.45       5.51       7.27
C       5.38       7.33       6.18
C       4.28       7.44       5.34
C      11.01       6.76       5.52
C      10.87       7.56       6.67
C       9.73       7.44       7.46
C       8.85       5.82       6.06
C       9.95       5.89       5.21
C       3.76       5.46       2.49
C      10.49       8.41       2.72
C       0.72       6.99       1.14
C       0.70       8.23       0.47
C       0.73       8.26      60.99
C       0.74       7.05      60.29
C       0.75       5.81      60.92
C       0.76       5.80       0.39
C       0.73       9.52      60.22
C      12.59      10.57      60.49
C      12.55      11.66      59.63
C       1.50      10.82      58.33
C       1.59       9.68      59.12
C       0.68       4.59      60.10
C      12.56       4.52      59.01
C      12.50       3.37      58.24
C       1.39       2.36      59.50
C       1.50       3.46      60.33
C       1.92       9.93       1.58
C      12.25       4.02       1.32
C      12.07       5.83      33.59
C      10.85       5.96      34.28
C      10.83       6.07      35.68
C      12.06       6.09      36.35
C       0.53       5.96      35.70
C       0.52       5.80      34.30
C       9.59       6.19      36.47
C       9.47       7.18      37.46
C       8.33       7.23      38.24
C       7.41       5.41      37.15
C       8.51       5.30      36.31
C       1.77       6.00      36.49
C       1.91       5.21      37.65
C       3.05       5.33      38.43
C       3.94       6.92      37.02
C       2.84       6.85      36.17
C       9.02       7.25      33.45
C       2.28       4.34      33.69
C      12.07       5.76      32.10
C      12.08       4.53      31.43
C      12.04       4.47      30.02
C      12.03       5.68      29.32
C      12.04       6.93      29.95
C      12.05       6.95      31.36
C      12.04       3.21      29.26
C       0.20       2.18      29.51
C       0.24       1.08      28.65
C      11.26       1.91      27.37
C      11.17       3.05      28.17
C      12.10       8.15      29.13
C       0.23       8.22      28.04
C       0.28       9.37      27.26
C      11.39      10.37      28.53
C      11.29       9.27      29.37
C      10.86       2.82      32.55
C       0.58       8.72      32.30
I       0.69       2.57       6.16
I       0.65      10.63       5.51
I      12.09      10.19      37.13
I      12.13       2.13      36.49
I       8.97       5.69      21.63
I       4.27       5.74      21.01
I       3.80       7.05      52.62
I       8.50       6.99      51.99
I       7.07       3.80       9.31
I       7.02       8.50       9.95
I       5.71       8.95      40.29
I       5.76       4.25      40.93
I       2.58       0.66      55.78
I      10.63       0.62      56.39
I      10.20      12.07      24.82
I       2.15      12.12      25.44
N       6.39       5.45      54.80
N       6.57       8.70      54.76
N      11.81       0.59       3.37
N       2.31       0.52       3.48
N       6.40       7.29      23.81
N       6.21       4.04      23.79
N       0.96      12.17      34.34
N      10.47      12.23      34.44
N      11.85      12.75       8.32
N       2.34      12.55       8.31
N       6.98       7.30      18.86
N       6.91       4.04      18.94
N       0.92       0.01      39.31
N      10.43       0.19      39.27
N       5.80       5.45      49.84
N       5.86       8.70      49.93
N      12.76       0.91      22.63
N       0.20      10.41      22.66
N       5.46       5.79      12.10
N       8.72       5.85      12.01
N       0.02      11.83      53.60
N      12.58       2.33      53.63
N       7.31       6.95      43.07
N       4.06       6.89      42.98
N       5.48       6.38       7.14
N       8.73       6.57       7.18
N       0.60      11.80      58.56
N       0.52       2.29      58.47
N       7.31       6.36      38.11
N       4.05       6.19      38.15
N      12.17       0.94      27.59
N      12.26      10.44      27.49
O       6.75       3.07      59.38
O       7.10      11.06      59.32
O       9.39       0.59      60.73
O       4.59       0.73      60.86
O       5.96       9.65      28.36
O       5.68       1.68      28.35
O       3.39      12.14      29.76
O       8.18      11.95      29.89
O       9.49      12.35      12.88
O       4.73      12.01      12.87
O       7.03       9.71      14.28
O       7.16       1.75      14.40
O       3.30       0.39      43.89
O       8.06       0.74      43.83
O       5.75       3.03      45.25
O       5.62      10.99      45.38
O       0.41       3.29      18.04
O       0.76       8.05      18.10
O       3.05       5.74      16.69
O      11.01       5.59      16.56
O      12.37       9.45      49.01
O      12.01       4.69      49.07
O       9.73       7.00      47.65
O       1.77       7.15      47.53
O       3.10       6.76       2.56
O      11.08       7.09       2.62
O       0.62       9.39       1.21
O       0.80       4.59       1.08
O       9.68       5.96      33.53
O       1.70       5.67      33.58
O      12.16       3.36      32.17
O      12.03       8.16      32.04
