20

C       6.27       1.47      10.92
C       5.09       1.24      10.21
C       5.11       1.10       8.84
C       7.51       1.16       8.86
C       7.49       1.28      10.26
C       3.81       2.02      10.14
C       3.85       1.86       8.64
C       6.30       1.18       8.13
C       6.20       2.17      12.20
C       6.26       0.90       6.71
H       3.96       3.07      10.45
H       3.02       1.23       8.25
H       4.01       2.81       8.09
H       8.42       1.33      10.81
H       2.96       1.49      10.62
H       8.46       1.08       8.35
O       7.32       0.51       6.13
O       5.11       0.72       6.20
O       7.25       2.66      12.74
O       5.04       2.45      12.61
