22

C       9.81       6.57       2.71
C       8.42       7.30      -0.72
C       9.41       6.43       1.32
C       7.36       9.43      -1.37
C       9.78       9.12      -1.65
C      10.05       5.53      -0.82
C      10.14       5.52       0.55
C       8.76       8.85       0.64
C       8.58       8.78      -0.86
C       9.14       6.36      -1.46
C       8.59       7.36       0.67
C       8.69       5.98      -2.78
H      10.62       4.79      -1.37
H      10.80       4.80       1.00
H       9.77       9.15       0.96
H       7.93       9.37       1.18
N      10.72       9.34      -2.28
N       6.40       9.93      -1.78
O       9.04       4.84      -3.19
O       9.61       7.69       3.29
O      10.55       5.66       3.20
O       7.76       6.66      -3.34
