20

C      14.48       6.51      10.90
C      14.37       6.58       8.12
C      14.85       7.67      10.21
C      14.80       7.69       8.85
C      13.77       5.52       8.81
C      13.80       5.50      10.21
C      16.13       8.47      10.20
C      16.06       8.47       8.69
C      14.14       6.79       6.72
C      15.13       6.21      12.16
H      15.99       9.48      10.64
H      16.87       7.89       8.21
H      17.01       7.92      10.57
H      15.90       9.48       8.26
H      13.35       4.68       8.28
H      13.41       4.64      10.74
O      15.96       7.07      12.55
O      14.53       7.91       6.27
O      13.25       6.08       6.15
O      15.03       5.04      12.68
