20

N       7.89       5.63       7.86
N       7.89       5.63      14.99
C       8.54       6.58       8.56
C       8.55       6.62       9.96
C       7.89       5.63      10.69
C       7.23       4.63       9.96
C       7.23       4.68       8.56
C       7.89       5.63      12.17
C       8.87       6.31      12.91
C       8.83       6.29      14.30
C       6.95       4.96      14.30
C       6.90       4.94      12.91
H       9.08       7.31       7.97
H       9.07       7.44      10.45
H       6.71       3.81      10.45
H       6.69       3.94       7.97
H       9.68       6.84      12.41
H       9.56       6.83      14.89
H       6.21       4.42      14.89
H       6.09       4.41      12.41
