96

C       5.32       0.06       1.95
C       5.35       1.27       2.67
C       5.41       1.29       4.07
C       5.43       0.06       4.77
C       5.40       9.87       4.09
C       5.35       9.88       2.67
C      10.51       5.33      21.05
C       9.30       5.36      21.77
C       9.29       5.37      23.18
C      10.52       5.35      23.87
C       0.70       5.33      23.19
C       0.69       5.33      21.77
C       5.30      10.45      36.72
C       5.25       0.66      36.05
C       5.20       0.72      34.64
C       5.19      10.56      33.90
C       5.24       9.31      34.55
C       5.29       9.27      35.96
C       0.13       5.30      17.58
C       1.34       5.33      16.86
C       1.35       5.39      15.45
C       0.12       5.41      14.76
C       9.94       5.38      15.45
C       9.95       5.33      16.86
C       5.53       6.51       5.65
C       5.60       4.23       6.28
C       5.70       5.92       7.94
C       5.62       6.24       9.28
C       5.45       7.45       4.61
C       5.56       2.88       5.95
C       4.06       5.36      24.76
C       6.35       5.41      25.39
C       4.67       5.31      27.06
C       4.37       5.12      28.40
C       3.13       5.35      23.72
C       7.70       5.42      25.06
C       5.11       5.95      33.01
C       5.02       3.67      32.40
C       4.96       5.35      30.72
C       5.06       5.70      29.39
C       5.20       6.90      34.03
C       5.05       2.32      32.76
C       6.57       5.51      13.88
C       4.30       5.58      13.24
C       5.98       5.66      11.59
C       6.30       5.58      10.24
C       7.51       5.44      14.92
C       2.94       5.54      13.57
H       5.48       0.06       5.79
H       5.33       9.00       2.16
H       5.34       2.16       2.15
H      10.52       5.36      24.90
H       1.58       5.31      21.26
H       8.41       5.37      21.26
H       5.15      10.58      32.88
H       5.32       8.37      36.45
H       5.25       1.52      36.59
H       0.12       5.46      13.74
H       9.07       5.32      17.38
H       2.23       5.32      17.36
H       5.60       2.18       6.70
H       5.40       7.12       3.64
H       4.93       6.91       9.54
H       8.40       5.40      25.81
H       3.46       5.39      22.75
H       3.67       4.45      28.62
H       5.01       1.63      32.01
H       5.23       6.58      35.00
H       5.77       6.37      29.17
H       2.24       5.58      12.82
H       7.18       5.40      15.89
H       6.97       4.89       9.98
N       5.29       0.16       0.63
N       5.47       2.50       4.66
N       5.45       8.77       4.87
N      10.40       5.34      19.73
N       8.08       5.40      23.77
N       1.80       5.34      23.98
N       5.33      10.31      38.04
N       5.13       1.95      34.06
N       5.20       8.22      33.75
N       0.25       5.29      18.90
N       2.56       5.45      14.86
N       8.83       5.43      14.66
N       5.53       5.20       5.33
N       5.67       4.61       7.58
N       5.60       6.86       6.97
N       5.38       5.41      24.44
N       5.98       5.35      26.69
N       3.72       5.29      26.08
N       5.09       4.64      33.35
N       4.96       4.04      31.09
N       5.06       6.30      31.69
N       5.26       5.52      14.20
N       4.67       5.64      11.95
N       6.93       5.57      12.56
