198

C       9.78      22.82      13.23
C       0.13      21.57      13.88
C       9.47      22.74      11.84
C       0.01      20.33      13.20
C       9.49      21.53      11.12
C       9.78      -7.36      13.93
C       9.47      -7.27      15.32
C       9.48      -6.06      16.04
C       9.67      -4.85      15.34
C       0.01      -4.86      13.96
C       0.13      -6.11      13.28
C       9.67      20.32      11.82
C       9.78      -0.16      26.47
C       9.47       1.01      25.71
C       9.48       1.03      24.29
C       9.67      -0.18      23.60
C       0.01      -1.38      24.30
C       0.12      -1.34      25.71
C       9.78      15.62       0.69
C       0.13      16.81       1.45
C       0.01      16.84       2.86
C       9.67      15.65       3.56
C       9.49      14.44       2.87
C       9.47      14.46       1.46
C       9.78       7.11      13.97
C       9.47       5.86      13.34
C       9.48       4.63      14.03
C       9.67       4.63      15.43
C       0.01       5.84      16.11
C       0.12       7.05      15.37
C       9.78       8.36      13.19
C       0.12       8.42      11.79
C       0.01       9.62      11.05
C       9.67      10.83      11.73
C       9.48      10.84      13.13
C       9.47       9.60      13.82
C       0.05      18.06       3.61
C       1.12      18.32       4.48
C       9.75      19.90       5.76
C       8.65      19.70       4.88
C       8.79      18.78       3.81
C       9.67      20.60       7.00
C       0.83      21.27       7.62
C       0.70      21.71       8.96
C       9.44      21.49       9.69
C       8.37      20.87       9.02
C       0.05       9.67       9.62
C       1.13      10.29       8.95
C       9.75      10.61       6.95
C       8.65       9.95       7.56
C       8.79       9.49       8.90
C       9.67      11.33       5.72
C       0.83      11.53       4.84
C       0.70      12.48       3.79
C       9.44      13.22       3.61
C       8.37      12.94       4.48
C       0.06      19.07      13.88
C       1.13      18.18      13.67
C       9.75      16.29      14.39
C       8.65      17.15      14.66
C       8.79      18.53      14.40
C       9.67      14.86      14.38
C       0.83      14.00      14.65
C       0.69      12.61      14.37
C       9.44      12.09      13.81
C       8.37      12.98      13.61
C       0.05      -2.59      23.55
C       1.12      -2.85      22.67
C       9.75      -4.43      21.40
C       8.65      -4.24      22.28
C       8.78      -3.31      23.35
C       9.67      -5.13      20.15
C       0.83      -5.80      19.54
C       0.69      -6.24      18.20
C       9.43      -6.03      17.47
C       8.36      -5.41      18.14
C       0.05       5.79      17.54
C       1.12       5.17      18.21
C       9.75       4.85      20.21
C       8.65       5.52      19.60
C       8.78       5.98      18.27
C       9.67       4.13      21.44
C       0.83       3.93      22.32
C       0.69       2.99      23.37
C       9.44       2.25      23.56
C       8.37       2.52      22.68
C       0.06      -3.61      13.28
C       1.13      -2.72      13.48
C       9.75      -0.82      12.76
C       8.65      -1.68      12.50
C       8.79      -3.07      12.76
C       9.67       0.60      12.77
C       0.83       1.47      12.50
C       0.70       2.85      12.80
C       9.44       3.38      13.35
C       8.37       2.48      13.55
H       9.21      23.57      11.32
H       1.53      21.75      15.13
H       9.21      -8.11      15.84
H       1.54      -6.29      12.03
H       8.75      -3.31      15.95
H       8.75      18.77      11.21
H       9.21       1.88      26.17
H       9.21      13.59       0.99
H       1.53      -2.34      26.50
H       1.53      17.80       0.66
H       8.74      -0.43      21.96
H       8.75      15.89       5.21
H       9.21       5.83      12.36
H       9.21       9.64      14.80
H       1.53       8.22      15.84
H       1.53       7.24      11.32
H       8.75       3.33      16.46
H       8.75      12.13      10.70
H       7.96      18.56       3.24
H       1.52      22.10       9.43
H       7.51      20.62       9.51
H       1.98      17.77       4.44
H       7.96       9.10       9.37
H       1.52      12.69       3.21
H       7.51      13.50       4.45
H       1.99      10.53       9.45
H       7.97      19.14      14.49
H       1.51      12.01      14.47
H       7.51      12.68      13.15
H       1.99      18.49      13.22
H       7.96      -3.10      23.92
H       1.51      -6.63      17.72
H       7.50      -5.16      17.65
H       1.98      -2.30      22.71
H       7.96       6.37      17.79
H       1.51       2.77      23.95
H       7.51       1.97      22.71
H       1.98       4.93      17.71
H       7.97      -3.67      12.66
H       1.51       3.46      12.69
H       7.51       2.78      14.01
H       1.99      -3.03      13.94
N       0.96      19.19       5.51
N       8.54      20.44       7.74
N       2.04      21.45       6.90
N       7.43      20.38       5.11
N       0.96      10.75       7.69
N       8.54      12.06       5.50
N       2.04      10.82       5.04
N       7.43       9.81       6.86
N       0.96      16.85      13.91
N       8.53      14.30      13.87
N       2.04      14.52      15.17
N       7.43      16.61      15.13
N       0.95      -3.72      21.64
N       8.53      -4.97      19.42
N       2.04      -5.97      20.25
N       7.43      -4.92      22.05
N       0.95       4.71      19.47
N       8.53       3.41      21.67
N       2.04       4.64      22.12
N       7.43       5.66      20.30
N       0.96      -1.39      13.25
N       8.54       1.16      13.29
N       2.04       0.94      11.99
N       7.43      -1.15      12.02
O       0.58      21.50      15.16
O       9.66      -3.67      16.03
O       9.67      19.13      11.13
O       0.58      -6.04      12.00
O       9.66      -0.18      22.23
O       9.66      15.65       4.93
O       0.58      -2.49      26.30
O       0.58      17.95       0.86
O       9.66       3.44      16.11
O       9.66      12.02      11.05
O       0.58       8.12      16.07
O       0.58       7.34      11.09
O       3.00      20.87       7.46
O       6.49      19.58       5.34
O       7.12      21.10       4.13
O       2.32      22.67       6.78
O       3.00      11.60       5.26
O       6.49      10.40       7.44
O       7.12       8.60       6.73
O       2.32      10.11       4.04
O       3.00      14.33      14.39
O       6.49      16.82      14.32
O       7.12      17.10      16.25
O       2.32      14.02      16.28
O       3.00      -5.39      19.69
O       6.49      -4.12      21.83
O       7.12      -5.64      23.03
O       2.33      -7.19      20.37
O       3.00       3.86      21.89
O       6.48       5.07      19.72
O       7.12       6.87      20.44
O       2.32       5.35      23.11
O       3.00       1.14      12.78
O       6.49      -1.35      12.83
O       7.12      -1.64      10.91
O       2.32       1.45      10.88
