20

C       4.59       5.72       8.20
C       3.98       6.11      10.93
C       3.74       4.84       8.88
C       3.45       5.03      10.20
C       5.09       6.77      10.35
C       5.35       6.61       8.97
C       2.35       4.40       8.55
C       2.03       4.63      10.00
C       3.25       6.54      12.15
C       4.73       5.60       6.75
H       5.66       7.48      10.91
H       6.07       7.25       8.49
H       2.30       3.33       8.25
H       1.36       5.49      10.16
H       1.82       5.11       7.87
H       1.76       3.69      10.54
O       3.33       7.73      12.66
O       5.13       6.65       6.07
O       2.39       5.70      12.53
O       3.85       4.82       6.20
