23

C       6.67       1.01      15.99
O       5.72       2.63      22.04
C       6.54       1.67      17.27
C       5.41       1.47      18.08
C       5.49       1.62      19.45
C       7.79       2.29      19.23
C       7.69       2.21      17.85
C       4.51       0.27      18.19
C       4.60       0.44      19.70
C       6.71       1.93      20.05
C       6.78       2.22      21.46
C       5.31      -0.72      20.41
H       8.74       2.59      19.66
H       8.56       2.42      17.25
H       4.99      -0.65      17.81
H       3.50       0.47      17.79
H       3.63       0.72      20.17
H       4.68      -1.63      20.35
H       6.30      -0.94      19.94
H       5.47      -0.47      21.48
O       7.94       2.42      21.93
O       5.62       0.54      15.45
O       7.84       0.74      15.58
