172

C      12.48       7.52       6.77
C       4.39       2.82      11.94
C       2.50       3.01      10.30
C      13.25       9.25       8.42
C       4.01       3.00      10.51
C      12.51       7.94       8.20
C       3.53       3.18       7.94
C      12.59       8.45      10.77
C       4.05       1.75       8.22
C      13.58       7.29      10.50
C       2.26       3.34       8.81
C      13.08       9.63       9.90
C      10.28       2.13      10.12
C      10.16       2.06       8.59
C       8.01       3.31       9.88
C      10.26       4.62       8.84
C      10.08       4.55      10.36
C       8.16       3.43       8.35
C       9.36       3.25      10.66
C       9.64       3.42       8.06
C       3.01       2.10      17.85
C      13.79       8.36       0.86
C       3.17       3.43       6.55
C      12.56       8.88      12.17
C       2.96       2.03       0.65
C      13.88       8.37      18.07
C       5.25       3.26      18.11
C      11.68       6.99       0.60
C       3.26       4.56      17.57
C      11.52       9.36       1.15
C       3.94       3.23      17.30
C      12.35       8.12       1.41
C       3.48       3.40       1.19
C      12.43       8.60      17.52
C       4.97       3.45       0.92
C      11.65       7.33      17.80
C       2.86       4.56       0.37
C      11.73       9.71      18.34
C       8.73       4.80      17.95
C       8.61       4.73       0.76
C       8.63       2.28      18.25
C      10.85       3.57       0.47
C      10.74       3.35      17.68
C       8.88       2.26       1.04
C       9.95       3.69       6.63
C       8.97       3.13      12.09
C       9.25       3.42      17.42
C       9.55       3.59       1.30
C      12.41       7.67       2.84
C       4.30       2.96      15.87
C       3.09       3.55       2.64
C      12.49       9.01      16.07
C       9.91       3.82       2.73
C       8.87       3.22      15.99
C       4.56       4.32       9.92
C      11.09       8.12       8.79
C       4.60       4.22       8.40
C      11.16       8.04      10.31
C       4.56       1.80       9.68
C      13.28       6.87       9.04
Cr      10.52       6.02       4.77
Cr       6.67       3.78      13.95
Cr      14.09       5.97       4.71
Cr       4.94       0.65      14.00
Cr      12.28       2.88       4.62
Cr       8.52       0.70      14.09
H       5.51       4.67      10.34
H      10.32       7.46       8.38
H      12.80       2.78       8.43
H       8.35       0.20      10.28
H       4.44       0.84      10.20
H      14.17       6.50       8.52
H      10.10       1.17      10.57
H      11.09       1.75       8.14
H      11.32       2.34      10.41
H       9.46       1.26       8.31
H       7.47       2.42      10.16
H      11.30       4.65       8.55
H       7.63       2.61       7.83
H      11.06       4.60      10.88
H       9.46       5.41      10.71
H       7.72       4.40       8.01
H       9.75       5.53       8.51
H       7.47       4.20      10.20
H       3.26       1.07      17.51
H      14.56       7.64       1.20
H       3.82       5.08      10.17
H      10.79       9.13       8.54
H       1.97       2.27      17.50
H      14.15       9.35       1.22
H       1.95       1.73       0.99
H      14.64       9.10      17.73
H       3.63       1.21       1.00
H      14.25       7.39      17.72
H       5.62       2.27      17.96
H      12.35       6.18       0.76
H       5.52       2.68       1.51
H      12.04       6.47      17.21
H       3.94       5.40      17.29
H      10.46       9.18       1.43
H      13.71       4.66      16.97
H       6.26       0.33       1.75
H      13.20       4.39       0.47
H       6.75       0.65      18.25
H       3.16       5.53       0.79
H      10.73       9.93      17.93
H       5.94       4.00      17.70
H      10.68       6.76       1.02
H       4.47       5.24       7.98
H      10.34       8.65      10.73
H       5.36       4.45       1.20
H      10.58       7.48      17.52
H       7.73       5.09      17.60
H       8.85       5.74       1.12
H       9.41       5.60      17.60
H       7.58       4.54       1.12
H       7.59       2.47      18.17
H      11.20       4.57       0.55
H       7.96       2.15       1.66
H      11.29       4.09      17.06
H      11.11       2.33      17.42
H       9.58       1.44       1.29
H      11.57       2.86       0.89
H       8.89       1.30      17.83
H       5.59       3.89       8.06
H      10.96       7.01      10.66
H       5.60       2.04       9.55
H      12.56       6.08       9.16
H       4.92       1.58       7.55
H      13.30       6.44      11.17
H       2.10       2.00      10.54
H      14.33       9.10       8.18
H      13.38       3.75      10.95
H       7.22       0.17       7.76
H      13.38       4.36       8.71
H       6.69       0.48      10.01
H       7.99       8.42       9.00
H       5.84       7.17       9.71
O       9.56       4.88       6.26
O       8.13       4.05      12.45
O       3.29       4.71       3.25
O      11.38       9.42      15.47
O       2.32       2.61       3.07
O      13.69       9.22      15.65
O      10.85       3.05       3.24
O       9.08       2.02      15.48
O      12.30       4.96       4.70
O       6.71       1.71      14.01
O      11.35       7.14       6.21
O       5.28       3.61      12.51
O      13.66       7.34       6.29
O       3.96       1.71      12.42
O       3.33       4.64       6.07
O      11.42       9.34      12.65
O       2.37       2.53       6.11
O      13.73       9.14      12.60
O      10.89       2.98       6.06
O       9.12       1.95      12.66
O       9.51       4.96       3.22
O       8.09       4.13      15.50
O      11.30       7.21       3.39
O       5.24       3.69      15.33
O      13.61       7.41       3.25
O       3.92       1.79      15.46
O       1.54       0.65       7.44
O       9.16       9.35       6.84
O       8.34       9.29       9.31
O      15.78       8.92      11.28
O       4.44       6.61      11.87
O       4.90       7.29       9.40
S       2.91       0.32       7.92
S      15.39       7.57      10.80
