56

Ca       5.59       5.30       3.95
Ca       6.74       7.87       7.30
Ca       5.26       1.45       5.63
Ca       5.71       5.13       0.00
H       2.57      10.15      10.80
H       9.44       9.88      11.21
H       5.02       8.42       1.50
H       3.50       0.57       0.25
H       9.77       3.03       0.46
H       2.89       3.29       0.04
H       7.32       4.76       9.75
H       8.84      12.61      11.00
C       3.19       6.15       1.85
C       1.76       6.33       1.54
C      10.73       6.84       0.41
C       9.33       6.71       0.62
C       9.18       6.12       1.86
C       7.97       5.70       2.59
C       6.12       8.73       4.44
C       5.88       9.50       3.22
C       5.41       9.34       1.93
C       3.75       0.33       1.28
C       4.30       1.20       2.19
C       4.80       2.59       2.26
C       9.14       7.03       9.41
C      10.57       6.85       9.72
C       1.61       6.34      10.84
C       3.00       6.47      10.63
C       3.15       7.06       9.39
C       4.36       7.48       8.67
C       6.22       4.45       6.81
C       6.45       3.67       8.04
C       6.92       3.84       9.32
C       8.58      12.84       9.98
C       8.03      11.97       9.06
C       7.53      10.59       9.00
O       4.00       6.45       0.90
O       3.52       5.71       2.99
O      10.41       5.89       2.44
O       8.01       5.32       3.79
O       6.85       5.77       1.93
O       6.72       9.39       5.39
O       5.77       7.54       4.56
O       6.30      10.81       3.38
O       5.20       2.95       3.43
O       4.83       3.28       1.21
O       8.34       6.73      10.36
O       8.81       7.47       8.26
O       1.93       7.28       8.82
O       4.32       7.86       7.46
O       5.49       7.41       9.32
O       5.62       3.79       5.86
O       6.57       5.64       6.69
O       6.03       2.37       7.87
O       7.13      10.23       7.82
O       7.51       9.90      10.05
