16

O       4.53       5.28      19.31
O       0.90       3.64      19.80
V       2.55       4.30      19.60
V       6.18       4.61      19.51
C       4.58       2.29      18.31
C       0.95       6.62      20.81
C       4.61       3.40      21.81
C       0.98       5.52      17.30
O       5.78       3.69      21.24
O       2.15       5.22      17.87
O       3.37       2.72      18.62
O       7.00       6.20      20.49
O       3.39       3.54      21.28
O       7.02       5.37      17.84
O       2.12       6.04      20.54
O       5.75       2.87      18.57
