54

Zn       3.40       4.45       6.38
Zn       6.36       4.45       6.38
H       6.75       5.54      10.46
H       0.33       4.97       1.32
H       2.16       6.24       2.40
H       1.64       8.06       3.98
H       7.39       8.65       4.47
H       5.54       7.41       3.39
H       3.01       3.37       2.29
H       7.99       6.00      12.44
H       1.77       2.91       0.31
H       4.22       1.50       9.36
H       2.38       0.26       8.28
H       8.12       0.84       8.77
H       7.60       2.67      10.36
H       9.43       3.94      11.44
C       4.88       1.94       6.37
C       4.01       3.58      11.11
C       3.74       3.95       1.72
C       6.03       4.96      11.03
C       3.58       4.09       0.37
C       6.18       4.82      12.39
C       4.88       0.58       6.37
C       4.88       8.33       6.38
C       2.91       2.83      10.46
C       3.19       1.77       9.57
C       2.15       1.06       8.96
C       4.88       6.97       6.38
C       8.93       1.39       9.24
C       8.63       2.43      10.14
C       1.57       3.14      10.75
C       6.86       6.08       2.29
C       8.19       5.77       2.01
C       1.13       6.48       2.62
C       0.84       7.52       3.51
C       7.61       7.85       3.79
C       6.57       7.14       3.18
C       4.81       4.49       3.80
C       4.95       4.42       8.96
C       4.97       4.33      10.39
C       4.80       4.58       2.37
C       5.61       5.44       0.27
C       4.15       3.47      12.49
C       5.76       5.33       1.64
N       8.34       4.45       6.38
N       1.43       4.45       6.38
O       3.77       2.54       6.38
O       5.99       6.37       6.38
O       5.99       2.54       6.38
O       3.77       6.37       6.38
O       3.70       4.46       4.42
O       6.06       4.45       8.34
O       5.92       4.46       4.42
O       3.84       4.45       8.33
