11

Co      17.32      14.62       9.29
C      16.55      16.70       7.64
C      19.06      15.17      11.67
C      18.84      16.97      10.44
C      16.54      12.56      10.92
N      18.44      15.65      10.58
N      18.44      13.59       8.01
C      19.06      14.08       6.93
C      18.84      12.26       8.14
O      16.01      15.82       8.44
O      15.98      13.43      10.12
