22

Eu      20.60      12.09      14.48
Eu      24.37      10.55      14.54
C      18.75      13.91      13.39
C      18.20      15.01      12.56
C      22.01       9.58      12.42
C      21.54       9.47      16.33
C      26.22       8.73      15.63
C      26.77       7.63      16.46
C      22.96      13.05      16.60
C      23.43      13.16      12.69
O      18.75      12.70      12.96
O      19.31      14.16      14.52
O      22.70       9.50      15.77
O      21.19      10.29      13.11
O      23.23       9.42      12.72
O      20.63      10.33      16.14
O      26.22       9.94      16.06
O      25.67       8.48      14.50
O      22.28      13.13      13.24
O      23.78      12.35      15.91
O      21.74      13.21      16.30
O      24.34      12.30      12.88
