72

Tb       6.28       0.14      15.41
Tb       6.81       5.76       8.21
Tb       2.51      11.05       0.31
Tb       1.94       5.44       7.51
H       1.26       2.30      12.67
H       1.64       4.05      10.71
H       2.01       7.90      10.85
H       1.65       9.64      12.82
H       7.53       8.86       3.04
H       7.14       7.12       5.00
H       6.77       3.28       4.85
H       7.14       1.54       2.89
C       3.58       0.94      13.68
C       3.41       1.91      12.59
C       2.22       2.53      12.21
C       2.42       3.45      11.17
C       3.76       3.53      10.78
C       4.30       4.41       9.75
C      -0.31       6.52       9.88
C      -0.13       7.49      10.96
C       1.06       8.12      11.33
C       0.87       9.04      12.37
C      -0.47       9.11      12.77
C       8.84       9.98      13.81
C       5.24      10.23       2.03
C       5.39       9.27       3.11
C       6.57       8.64       3.50
C       6.37       7.72       4.54
C       5.03       7.65       4.92
C       4.47       6.77       5.95
C       9.09       4.67       5.83
C       8.92       3.70       4.75
C       7.73       3.07       4.38
C       7.92       2.14       3.34
C       9.25       2.07       2.93
C      -0.06       1.18       1.91
S       4.77       2.45      11.67
S       8.38       8.03      11.89
S       4.03       8.73       4.03
S       0.40       3.16       3.81
N       6.33       2.91      15.06
N       6.80       8.55       8.50
N       2.45       8.27       0.64
N       1.98       2.65       7.21
O       4.69       0.31      13.79
O       3.50       5.19       9.12
O       6.70       2.31       0.20
O       7.16       2.13      14.43
O       6.29       4.12      14.88
O       2.59       0.80      14.49
O       5.56       4.39       9.53
O       8.45       5.89       9.79
O      -0.21      10.77      14.42
O       7.59       7.93       7.66
O       6.01       7.76       9.18
O       6.80       9.76       8.63
O       0.66       6.38       9.05
O       7.59       9.95      14.05
O       4.14      10.87       1.90
O       5.28       6.00       6.58
O       2.10       8.87      15.51
O       1.62       9.06       1.27
O       2.48       7.06       0.82
O       6.23      10.37       1.23
O       3.21       6.79       6.17
O       0.32       5.32       5.92
O       9.01       0.37       1.31
O       1.19       3.26       8.05
O       2.76       3.45       6.53
O       1.98       1.44       7.07
O       8.11       4.81       6.66
O       1.20       1.23       1.66
