14

C       3.96       4.71       8.11
C       3.94       5.42       5.84
H       3.43       4.88       9.06
O       4.37       3.07       6.35
H       5.02       4.96       8.24
H       4.39       2.61       8.34
H       2.75       2.97       7.67
O       3.37       5.64       7.16
H       2.69       3.76       5.30
H       4.26       3.79       4.44
C       3.81       3.27       7.67
C       3.76       3.99       5.40
H       5.00       5.72       5.87
H       3.38       6.09       5.17
