14

C      -0.37       4.43       8.88
H      -0.41       3.76       9.76
C       0.47       6.28      10.13
H       0.47       5.73      11.08
H      -0.13       3.84       7.98
H       1.32       6.99      10.11
H      -1.09       7.60      10.84
H      -0.81       7.67       9.07
H      -1.69       5.70       7.74
H      -2.54       4.44       8.72
O      -1.96       6.08       9.79
O       0.74       5.35       9.03
C      -0.84       7.01       9.94
C      -1.69       5.15       8.70
