14

C      -3.09       4.21       5.13
C      -3.18       2.64       3.32
H      -2.53       5.11       5.43
H      -4.16       4.44       5.07
H      -4.26       2.77       3.17
H      -2.69       2.45       2.34
O      -3.40       1.82       5.63
H      -1.84       1.28       4.34
H      -3.47       0.61       3.98
O      -2.60       3.90       3.78
H      -1.74       2.95       6.24
H      -3.31       3.26       7.07
C      -2.91       1.51       4.29
C      -2.82       3.08       6.09
