14

H       1.35       0.83       0.35
H      -0.24       0.75       1.17
H      -0.22      -0.01       3.54
H       1.40      -0.38       4.24
C       0.97       2.44       1.74
C       1.02       1.73       4.01
H       0.39       3.11       1.07
H       2.03       2.75       1.75
O       1.41       0.08       2.25
H       2.09       1.95       4.11
H       0.52       1.92       4.98
C       0.82       1.00       1.30
C       0.84       0.29       3.57
O       0.41       2.65       3.06
