14

H       7.40      -2.33       7.63
H       6.92      -1.52       6.10
C       6.61      -1.75       7.13
C       4.32      -1.91       6.53
H       4.52      -1.64       5.48
H       3.48      -2.63       6.55
H       7.16       0.22       7.83
H       6.12      -0.72       8.96
O       5.17       0.22       7.37
H       3.72      -0.89       8.36
H       3.21      -0.09       6.83
O       5.46      -2.62       7.08
C       6.31      -0.49       7.90
C       4.01      -0.66       7.33
