19

Cd       3.16       5.86      22.69
Cd       3.34       4.14      25.74
N       1.62       3.97      27.29
N       3.55       5.79      20.44
O       1.06       5.20      22.50
O       1.49       3.78      24.24
O       5.52       6.24      22.92
O       4.66       4.31      23.71
O       3.65       1.86      25.66
O       2.58       6.89      24.62
O       4.02       6.24      26.26
C       0.78       2.94      27.10
C       1.36       4.83      28.30
C       0.71       4.39      23.45
C       5.67       5.08      23.43
C       4.76       1.86      26.32
C       3.38       7.12      25.61
C       4.76       6.13      19.94
C       2.72       5.05      19.66
