84

P      -0.50       3.88       6.19
P       0.13       8.65      -6.19
P       4.06       6.82       5.06
P      -4.41       5.75      -5.05
H       2.69       8.92       5.78
H       1.54      12.80      -6.64
H       0.30      13.03      -7.91
H      -0.24      12.83      -6.21
H      -1.79       1.14       7.00
H      -0.34       1.81       7.86
H      -0.31      -0.41       5.75
H      -0.09      -0.60       7.54
H       1.12       0.31       6.53
H       4.18      10.77       6.13
H       2.65       9.20       3.98
H       2.77      11.35       5.17
H       4.35      11.05       4.34
H      -4.71       2.97      -6.17
H      -3.88       0.97      -4.71
H      -5.55       1.54      -4.38
H      -4.20       2.00      -3.28
H      -2.31       7.15      -6.34
H      -4.06       4.99      -2.40
H      -1.62       3.60       3.67
H       1.08       9.12      -3.59
H       3.84       7.27       2.38
H       1.92       5.43       6.36
H      -3.28       4.57      -0.25
H      -2.39       3.93       1.49
H       1.80       8.85      -1.34
H       1.41      10.65      -7.60
H      -0.36      10.80      -7.87
H      -2.65       3.95      -6.10
H      -2.35       2.41      -5.60
H       3.31       7.13      -1.06
H       3.56       8.57      -0.13
C       3.67      10.70       5.15
C       3.28       9.25       4.90
C      -4.24       3.10      -5.17
C      -4.48       1.83      -4.34
C      -0.88       5.40       0.88
C      -1.53       4.51       1.76
C      -2.62       5.15      -0.88
C      -1.38       5.66      -0.43
C      -3.09       5.40      -2.16
C      -2.35       6.16      -3.07
C      -1.14       6.74      -2.64
C      -0.66       6.51      -1.31
C      -2.79       6.35      -4.40
C      -1.98       7.04      -5.31
C      -0.81       7.68      -4.90
C      -0.42       7.58      -3.53
C       0.34       6.00       1.30
C       0.80       5.78       2.64
C       0.04       4.99       3.55
C      -1.07       4.31       3.06
C       0.62       8.34      -3.01
C       1.06       8.15      -1.70
C       0.54       7.13      -0.87
C       1.11       6.79       0.40
C       2.43       7.16       0.81
C       2.03       6.33       3.07
C       2.84       6.96       2.12
C       0.46      11.01      -7.16
C       2.44       6.18       4.41
C       1.61       5.52       5.33
C       0.43       4.89       4.92
C       0.52      12.51      -6.96
C      -0.72       1.37       6.91
C       0.05       0.08       6.67
N      -2.80       3.30      -5.30
N       3.47       7.53      -0.11
O      -1.95       4.30       5.99
O       1.57       8.22      -5.99
O      -0.45       8.40      -7.63
O      -4.52       5.84      -6.79
O       0.25      10.38      -5.93
O       0.07       4.12       7.63
O      -5.52       6.66      -4.47
O      -4.87       4.15      -4.47
O       4.14       6.68       6.79
O       5.26       6.03       4.49
O      -0.54       2.18       5.78
O       4.44       8.49       4.70
