63

P       3.97       7.68      10.24
P      -0.61       9.03       7.42
O       2.29      15.64       8.54
P       6.37      12.82      10.96
O       6.46      14.57      10.96
P       1.81      14.02       8.08
O       7.63      12.30      10.24
O       6.54      12.24      12.60
O       3.42       6.24       9.88
O       0.32      13.95       8.57
O       1.76      13.85       6.34
O       5.39       7.92       9.84
H       3.67       6.03      12.33
O      -0.75       7.31       7.46
H       3.66       8.07      14.64
H       3.27       6.31      14.71
H       2.19       7.46      13.82
O      -1.69       9.56       8.39
H       0.23      15.25       6.22
H       1.91      15.89       5.96
H       0.40      13.96       4.08
H       0.57      15.73       3.85
H       0.43      10.30       3.00
H       7.20      14.04      13.40
H       5.44      13.88      13.29
H       6.26      13.64      15.63
H       5.43      12.14      15.05
H       7.23      12.21      15.15
H       0.41       8.59       4.91
H       0.68      10.33       5.37
H       0.66      11.59       7.70
H       5.19      10.17      10.61
H       4.17      14.18       9.67
H       1.69       7.55       8.45
H      -1.09      11.00       3.68
H       5.76       7.73      13.56
H       5.90       6.80      12.19
H       2.20      14.64       2.60
H       2.71      13.69       3.89
C       1.23      15.03       5.78
C       1.06      14.83       4.28
C       6.37      13.32      13.49
C       6.32      12.79      14.92
C      -0.06       9.60       4.99
C      -0.48      10.07       3.60
C       3.95      13.13       9.60
C       1.94       8.60       8.53
C       1.37      10.90       8.11
C       1.06       9.55       8.01
C       3.07       8.98       9.27
C       3.38      10.37       9.39
C       2.52      11.33       8.79
C       2.81      12.71       8.91
C       4.83      12.20      10.15
C       4.52      10.84      10.10
C       4.03       6.97      12.79
C       3.24       7.21      14.07
C      -1.25       9.05       2.90
N       5.43       6.84      13.12
N       2.36      14.64       3.64
N      -1.86       8.24       2.33
O       3.87       8.08      11.95
O      -1.16       9.57       5.85
