396

C       7.65      12.82      83.63
C      14.16       1.52      34.61
C      14.80       0.39       3.00
C       7.82      12.44      73.97
C       8.42      11.41      74.72
C       8.53      11.23      22.17
C      14.19       1.51      25.60
C       7.68      12.73      67.14
C      13.45       2.68      61.78
C      13.80       2.04      35.89
C      14.70       0.43      74.64
C      14.65       0.45      76.07
C       7.71      12.46      76.81
C       8.36      11.41      76.12
C      14.00       1.56      76.68
C       8.89      10.41      21.07
C      14.71       0.43      54.76
C       7.64      12.55      86.09
C       8.27      11.44      31.53
C      13.46       2.47      74.57
C       0.61       0.43      82.47
C       1.08       1.77      82.54
C       1.61       2.49      81.44
C       1.65       1.81      80.19
C       1.22       0.47      80.07
C      -6.87      12.88      81.20
C       0.56       0.11      84.92
C       6.65      11.54      85.97
C       6.20      11.08      84.70
C       6.73      11.74      83.56
C       5.30       9.97      84.60
C      -6.22      12.86      78.83
C      -6.89      12.89      87.36
C       2.05       3.84      81.59
C       7.60      12.30      22.10
C       8.28      10.71      19.82
C       7.33      11.76      19.70
C       7.03      12.55      20.82
C      14.81       0.01      23.26
C       7.35      12.51      24.55
C      14.58       0.15      25.72
C      -1.07       2.14      24.33
C      -0.76       1.35      23.19
C      -1.58       3.47      24.22
C       6.69      12.01      18.46
C       7.05      12.57      26.99
C      -5.25       9.35      21.22
C      14.40       0.32      52.30
C      13.01       0.06      52.37
C      12.12       0.16      51.27
C      12.69       0.53      50.02
C      14.07       0.83      49.90
C      -0.18       0.69      51.03
C       0.15       0.23      53.46
C       0.39       0.34      55.93
C      -5.78      13.07      55.80
C      -5.16      12.91      54.53
C      -5.99      13.04      53.39
C      -3.75      12.68      54.43
C      -0.48       1.26      48.66
C      -0.18       0.66      57.20
C       3.18      12.94      51.42
C      -6.79      12.73      38.09
C      -6.32      11.39      38.04
C      -5.76      10.70      39.14
C      -5.69      11.39      40.37
C      -6.12      12.74      40.47
C       0.86       0.31      39.35
C       0.20       0.31      36.94
C      -6.98      12.97      35.63
C       0.03       0.49      34.47
C      -0.71       1.41      37.02
C      12.93       3.17      36.01
C       1.52       0.36      41.71
C       0.46       0.06      33.17
C      -5.32       9.34      39.00
C      -0.09       0.84       7.92
C       0.84       1.92       7.87
C       1.16       2.75       8.97
C       0.52       2.46      10.20
C      -0.44       1.42      10.30
C      14.39       0.61       9.18
C      14.72       0.03       6.77
C      -0.20       0.55       5.46
C       7.11      12.87       4.30
C       6.70      11.52       4.44
C       6.43      10.94       5.72
C       6.68      11.77       6.85
C       5.89       9.63       5.84
C      14.00       1.16      11.54
C       2.11       3.81       8.84
C       6.85      12.57      68.29
C       5.45      12.84      68.24
C       4.56      12.70      69.34
C       5.14      12.29      70.57
C       6.52      11.98      70.67
C       7.35      12.16      69.55
C       7.14      12.62      65.83
C      -7.17      12.80      64.67
C       1.75       0.04      64.81
C       2.38       0.10      66.09
C      -6.00      12.97      67.22
C       3.79       0.28      66.21
C       7.07      11.55      71.91
C       7.33      12.63      63.38
C       3.17      12.99      69.21
C       1.18       1.41      89.06
C       2.22       0.81      89.84
C       2.13       0.81       0.72
C       1.04       1.47       1.36
C       0.12       2.20       0.57
C       0.18       2.15      89.72
C       3.13       0.07       1.41
C      -3.33      12.59      89.93
C       8.15      11.33      28.69
C       7.12      10.72      29.47
C       7.16      10.81      30.90
C      -5.73      11.87      30.74
C      -5.79      11.83      29.34
C       6.03      10.31      31.59
C       5.01       9.62      29.57
C      13.27       0.32      58.89
C      13.26       1.52      59.66
C      13.31       1.44      61.09
C      13.28       0.17      61.73
C       5.56      12.08      60.94
C       5.57      12.15      59.54
C      -1.71       3.90      59.76
C       2.77       5.73      82.98
C       2.22       6.88      82.34
C       2.83       8.17      82.50
C       3.99       8.32      83.33
C       4.45       7.17      84.02
C       3.84       5.92      83.87
C       2.16       9.27      81.89
C       0.44       7.87      81.09
C      -3.98       7.78      22.61
C      -2.70       7.69      21.97
C      -1.90       6.51      22.13
C      -2.34       5.43      22.96
C      11.52       5.61      23.65
C      10.74       6.76      23.50
C      -0.61       6.54      21.52
C      -0.95       8.73      20.72
C       1.19      12.62      52.81
C       0.47      11.56      52.17
C      -0.96      11.45      52.33
C      -1.66      12.37      53.17
C       6.64       0.27      53.85
C       8.03       0.38      53.71
C      -1.57      10.32      51.71
C       0.50       9.53      50.91
C      10.47       7.44      37.63
C       9.92       6.30      38.29
C      10.53       5.00      38.14
C      11.66       4.84      37.29
C      -2.97       5.98      36.58
C      -3.56       7.23      36.72
C       9.86       3.92      38.77
C       8.16       5.33      39.58
C       3.41       5.36       7.46
C       4.68       5.46       8.12
C       5.49       6.63       7.97
C       5.07       7.70       7.12
C       3.85       7.53       6.41
C       3.06       6.38       6.55
C       6.76       6.60       8.61
C       6.39       4.42       9.42
C       8.72       0.28      67.83
C       8.01       1.32      68.49
C       6.58       1.44      68.34
C       5.87       0.54      67.49
C      -0.92      12.65      66.78
C       0.47      12.54      66.92
C       5.97       2.56      68.98
C       8.05       3.33      69.79
C      14.40       0.06      13.60
C       0.56       0.11      14.27
C       0.60       0.15      15.70
C      14.46       0.15      16.44
C      13.24       0.11      15.75
C      13.20       0.06      14.35
C       1.88       0.16      16.31
C       2.95       0.17      14.20
C       0.37       0.50      43.80
C       7.33      12.47      44.48
C       7.35      12.43      45.91
C       0.42       0.42      46.64
C       1.00       1.50      45.93
C       0.97       1.54      44.53
C       6.72      11.31      46.53
C       6.19      10.37      44.43
H       8.90      10.64      74.24
H       8.81      10.65      76.63
H      14.07       1.46      72.97
H       8.58      10.85      37.19
H      13.01       3.22      74.03
H      13.22       2.82      58.08
H      14.61       0.44      41.98
H       0.92       2.29      83.41
H       6.40      11.46      82.64
H       1.38       2.80      78.59
H       5.37      11.62      87.36
H       7.97      11.90      81.09
H       1.32       0.78      85.02
H      -6.03      11.11      23.04
H      -0.83       1.78      22.27
H      -5.81      10.46      18.22
H      -0.19       2.58      27.00
H      13.85       0.20      20.72
H       7.55      11.51      24.65
H       5.10      12.73      53.24
H      -5.59      12.89      52.47
H       4.43      12.87      48.43
H      -5.21      11.91      57.19
H       0.80       0.96      50.93
H      13.74       0.76      54.85
H      -0.98       1.74      37.94
H      -5.94      10.44      41.99
H      12.76       1.39      33.34
H       0.60       1.29      39.45
H      -6.23      12.29      35.51
H       1.40       2.02       7.02
H       6.53      11.37       7.77
H       1.47       2.72      11.82
H       7.51      10.37       3.17
H       6.12      12.96       9.27
H       0.02       1.55       5.34
H      12.62       0.20      67.39
H      -5.59      13.04      68.14
H       4.44      12.98      72.19
H       2.33       1.32      63.54
H      -6.76      11.89      69.64
H       6.18      12.32      65.71
H      -0.59       2.56      89.18
H      -0.69       2.64       1.01
H      -2.55      12.12      89.46
H       3.37       0.20      88.25
H       0.68       1.82      87.16
H       1.38       1.48       3.34
H      -5.06      12.30      28.80
H      -4.94      12.35      31.18
H       4.22       9.18      29.10
H       6.02      10.02      27.89
H      -6.33      11.54      26.79
H       8.11      11.14      33.51
H       5.61      11.28      59.01
H       5.58      11.15      61.38
H      -1.68       4.80      59.29
H       5.62      12.75      56.98
H      13.10       0.46      63.71
H       4.28       5.12      84.34
H       5.31       7.21      84.57
H      -0.46       7.78      80.61
H       0.51       5.97      81.65
H       2.56       3.81      83.51
H       4.73      10.06      82.68
H       9.83       6.78      23.97
H      11.12       4.84      24.20
H      -0.58       9.55      20.24
H      -2.64       9.62      21.28
H       9.56       8.93      23.14
H      -1.21       3.92      22.30
H       8.50       1.15      54.17
H       6.18       1.00      54.40
H       1.02       8.79      50.43
H       2.11      10.54      51.47
H      10.51       0.32      53.34
H      -3.54      12.15      52.51
H      -3.13       8.02      36.24
H      -2.11       5.93      36.02
H       7.27       5.43      40.08
H       8.23       7.23      39.00
H      -4.85       9.35      37.07
H      12.40       3.10      37.94
H       2.16       6.36       6.07
H       3.47       8.29       5.84
H       6.76       3.60       9.92
H       4.71       3.53       8.84
H       1.87       4.21       6.90
H       6.20       9.21       7.77
H       0.94      11.77      66.44
H      -1.38      11.93      66.21
H       8.57       4.05      70.29
H       9.65       2.32      69.21
H       2.95      12.58      67.28
H       3.99       0.77      68.14
H       0.67       0.12      72.16
H       6.90      12.49      78.64
H      12.30       0.03      13.87
H      12.35       0.10      16.26
H       3.82       0.18      13.66
H       1.76       0.14      12.60
H       7.31      12.42      11.79
H      -0.19       0.83      18.27
H       1.39       2.34      44.05
H       1.44       2.27      46.44
H       5.77       9.61      43.90
H       6.76      11.40      42.82
H      -6.74      12.78      48.47
N       7.89      12.38      72.60
N      14.08       1.45      73.95
N       7.76      12.43      78.18
N      13.43       2.52      75.92
N      13.29       2.75      59.05
N      -3.41      12.53       0.73
N       3.27       0.18      89.22
N       0.97       1.10      87.74
N       0.71       1.26       2.67
N       5.01       9.74      30.91
N       6.06      10.12      28.86
N       7.99      11.65      27.37
N       8.26      11.83      32.84
N      -1.61       3.85      61.11
N      13.64       0.30      57.57
N       6.08      13.06      63.04
N       1.01       9.09      81.22
N       1.02       6.80      81.67
N       2.36       4.43      82.79
N       4.70       9.49      83.46
N      -0.19       7.64      20.85
N      -2.18       8.77      21.30
N      -4.90       8.79      22.42
N      -1.68       4.23      23.09
N      -0.83       9.41      51.04
N       1.14      10.57      51.50
N       2.52      12.91      52.62
N      -3.03      12.40      53.29
N       8.71       4.11      39.46
N       8.73       6.40      38.98
N      -5.03       8.74      37.81
N      12.36       3.66      37.16
N       7.17       5.51       9.30
N       5.18       4.39       8.81
N       2.49       4.36       7.64
N       5.74       8.89       6.99
N       6.71       3.45      69.67
N       8.68       2.30      69.19
N       2.51      13.05      68.01
N       4.50       0.52      67.36
N       3.00       0.17      15.55
N       1.74       0.14      13.58
N      14.31       0.03      12.23
N      14.42       0.12      17.81
N       6.17      10.33      45.78
N       6.77      11.42      43.79
N       0.38       0.58      42.43
N       0.43       0.48      48.00
O       8.11      12.05      62.42
O      13.89       1.75      78.01
O       2.15       2.43      79.08
O       6.13      11.04      87.13
O       4.90       9.36      85.74
O      -6.71      11.87      88.24
O       2.36       4.56      80.48
O      -5.04      12.96      78.17
O       8.57       9.97      18.71
O      -1.07       2.21      26.76
O      -1.90       4.12      25.37
O       6.06      12.91      27.86
O      -4.78       8.73      20.11
O       6.19      10.94      17.79
O      11.90       0.66      48.91
O      -5.09      12.86      56.96
O      -3.02      12.64      55.57
O       0.61       1.32      58.07
O       2.41      12.85      50.31
O      -1.16       2.23      48.00
O      -5.18      10.80      41.49
O      13.55       1.97      33.47
O      12.51       3.78      34.87
O       0.58       1.02      32.22
O      -4.98       8.65      40.12
O       2.72       0.34      42.33
O       0.77       3.20      11.32
O       6.62      10.77       3.30
O       5.57       8.96       4.70
O      13.92       0.01       2.05
O       2.55       4.45       9.95
O      13.44       2.21      12.17
O       4.37      12.14      71.69
O       2.44       0.35      63.67
O       4.53       0.35      65.07
O       2.40      13.05      70.32
O       6.43      10.54      72.54
O      -4.37      12.98       2.75
O       5.87      10.36      32.93
O      -1.53       2.79      63.12
O       2.51      10.56      82.03
O       0.34       5.59      21.66
O      -2.87       9.97      51.85
O      10.20       2.62      38.64
O       7.72       7.54       8.47
O       4.68       2.92      68.85
O       2.10       0.16      17.64
O       6.60      11.14      47.86
