368

C       2.10       5.28       3.15
C       2.77       5.97       2.12
C       2.82       7.38       2.10
C       2.20       8.11       3.14
C       1.53       7.44       4.20
C       1.45       6.02       4.17
C       2.04       3.85       3.11
C       1.35       3.17       2.07
C       1.30       1.76       2.05
C       1.89       1.02       3.10
C       2.58       1.67       4.15
C       2.66       3.09       4.13
C      10.01      18.65       3.10
C      10.64      17.87       4.10
C      10.57      16.46       4.09
C       9.88      15.82       3.03
C       9.28      16.58       1.99
C       9.32      17.99       2.04
C      10.01      20.08       3.18
C       9.32      20.75       4.23
C       9.25      22.16       4.26
C       9.83      22.91       3.20
C      10.52      22.26       2.14
C      10.62      20.85       2.16
C       9.91       3.92      17.94
C       9.27       3.19      16.91
C       9.27       1.78      16.91
C       9.92       1.09      17.96
C      10.55       1.80      19.01
C      10.56       3.22      18.99
C       9.95       5.35      17.88
C      10.64       6.02      16.84
C      10.71       7.43      16.81
C      10.12       8.18      17.87
C       9.42       7.52      18.92
C       9.33       6.11      18.90
C       2.16      20.12      17.91
C       1.48      20.81      18.94
C       1.41      22.22      18.96
C       2.02      22.95      17.91
C       2.71      22.29      16.86
C       2.80      20.87      16.88
C       2.19      18.70      17.91
C       2.84      17.97      18.95
C       2.83      16.56      18.95
C       2.21      15.86      17.88
C       1.57      16.57      16.84
C       1.56      17.98      16.87
C       6.01      26.84      11.24
C       5.33      25.82      11.95
C       5.32      25.80      13.36
C       5.96      26.83      14.08
C       6.65      27.87      13.39
C       6.69      27.85      11.97
C       6.02      26.82       9.81
C       6.67      25.79       9.09
C       6.61      25.75       7.67
C       5.91      26.77       6.98
C       5.28      27.83       7.69
C       5.33      27.83       9.10
C      13.78      26.73      24.57
C      13.12      27.75      23.84
C      13.14      27.77      22.43
C      13.76      26.70      21.74
C      14.42      25.66      22.44
C      14.44      25.69      23.86
C      13.77      26.75      26.00
C      14.43      27.78      26.73
C      14.38      27.80      28.15
C      13.71      26.76      28.84
C      13.08      25.71      28.12
C      13.10      25.73      26.71
C      13.98      12.05       9.80
C      14.64      11.03       9.07
C      14.60      10.99       7.66
C      13.92      12.01       6.96
C      13.25      13.04       7.66
C      13.28      13.05       9.08
C      13.99      12.02      11.23
C      13.32      10.99      11.94
C      13.36      10.95      13.36
C      14.01      12.00      14.06
C      14.63      13.07      13.36
C      14.64      13.05      11.95
C       6.02      11.95      26.02
C       6.66      12.98      26.74
C       6.65      13.01      28.16
C       6.05      11.93      28.85
C       5.41      10.87      28.15
C       5.38      10.90      26.74
C       6.03      11.97      24.59
C       5.36      12.98      23.86
C       5.42      13.00      22.44
C       6.12      11.97      21.76
C       6.76      10.94      22.48
C       6.73      10.95      23.89
C      14.91       0.78       1.16
C       0.59       1.07       1.03
C       1.27       0.44      29.54
C      15.01      28.84      28.89
C      13.12       2.13       1.84
C       7.16      23.16       5.10
C       8.53      22.85       5.27
C       9.20      23.49       6.34
C       7.24      24.70       6.93
C       5.37      21.81       4.41
C      12.80       8.40      15.94
C      11.43       8.12      15.80
C      10.75       8.75      14.73
C      12.73       9.91      14.09
C      14.59       7.04      16.65
C       4.90      15.57      19.86
C       3.52      15.82      19.96
C       2.81      15.16      20.99
C       4.79      14.03      21.68
C       6.74      16.92      19.26
C       8.85      10.18      21.40
C       7.50       9.95      21.78
C       6.85       8.84      21.20
C       8.80       8.27      19.96
C      10.13      12.13      20.97
C       3.23      24.85      14.28
C       4.62      24.78      14.06
C       5.33      23.79      14.78
C       3.33      23.04      15.84
C       1.98      26.84      14.47
C      11.20      13.73       6.48
C      12.51      14.01       6.93
C      13.11      15.18       6.44
C      11.20      15.70       5.12
C      10.22      11.66       5.90
C       7.18       0.89      15.94
C       8.59       1.06      15.89
C       9.29       0.35      14.89
C       7.29      28.89      14.14
C       5.59       2.53      16.43
C      15.00      23.08      19.90
C       0.70      22.89      19.98
C       1.38      23.59      21.00
C      15.06      24.62      21.72
C      13.46      21.42      19.31
C       4.91       8.28       1.13
C       3.51       8.06       1.06
C       2.81       8.75       0.04
C       4.79       9.82      28.89
C       6.49       6.65       1.70
C       0.99      10.02       6.75
C      15.29       9.97       6.94
C      14.59       8.98       6.23
C       0.89       8.20       5.21
C       2.17      12.05       6.55
C      11.02      24.91      29.22
C      12.37      24.71      28.83
C      13.04      23.61      29.41
C      11.12      23.01       1.10
C       9.70      26.83       0.08
C       7.20      15.53       1.19
C       8.54      15.90       0.98
C       9.19      15.35      29.43
C       7.25      14.08      28.87
C       5.42      16.81       2.03
C      12.62       0.74      19.84
C      11.26       1.08      20.01
C      10.59       0.49      21.10
C      12.53      28.83      21.71
C      14.44       2.02      19.10
C       3.20      28.56       6.59
C       4.54      28.81       6.98
C       5.16       0.37       6.44
C       3.21       0.92       5.19
C       1.90      26.62       6.11
C      15.18      15.64      15.92
C       0.87      15.87      15.82
C       1.55      15.21      14.78
C      15.26      14.12      14.08
C      13.58      17.23      16.54
H       3.23       5.44       1.37
H       3.16       3.57       4.89
H      15.61       5.15       4.82
H      15.66       4.30       1.45
H       1.44       9.79       2.73
H       0.98      28.95       3.40
H      11.12      18.35       4.87
H      11.10      20.37       1.40
H       7.88      19.09       1.46
H       7.91      19.63       4.84
H       9.00      14.17       3.32
H       8.91      24.54       2.89
H       8.80       3.69      16.15
H       8.83       5.63      19.65
H      12.01       4.28      19.60
H      12.04       4.89      16.22
H      10.72      29.00      17.54
H      11.04       9.81      18.19
H       1.01      20.28      19.68
H       1.07      18.49      16.12
H       4.34      19.99      16.23
H       4.24      19.06      19.61
H       2.77      24.65      18.32
H       3.03      14.21      17.44
H       4.84      25.08      11.43
H       4.84      28.57       9.62
H       8.22      28.49      11.07
H       8.20      25.16      10.02
H       5.16      27.19      15.76
H       5.11      26.38       5.31
H      12.66      28.51      24.35
H      12.61      24.99      26.20
H       0.26      25.05      24.79
H       0.24      28.43      25.81
H      12.90      26.37      20.08
H      12.93      27.12       0.95
H      15.15      10.30       9.58
H      15.10      13.80      11.44
H      11.71      13.67       9.95
H      11.82      10.33      11.00
H      14.59      12.56       5.28
H      14.88      11.69      15.72
H       7.11      13.75      26.23
H       7.23      10.22      24.41
H       3.87      10.22      25.81
H       3.82      13.61      24.76
H       6.94      11.60       0.92
H       6.91      12.35      20.07
H       2.28       0.57      29.41
H      13.48       2.99       1.26
H      12.65       2.51       2.75
H      12.36       1.60       1.27
H      10.21      23.35       6.48
H       5.73      20.95       4.99
H       4.91      21.43       3.49
H       4.61      22.34       4.98
H       9.75       8.62      14.60
H      14.23       6.18      16.07
H      15.05       6.66      17.56
H      15.35       7.57      16.07
H       1.80      15.28      21.09
H       6.40      17.74      19.90
H       7.21      17.35      18.38
H       7.49      16.33      19.80
H       5.86       8.65      21.39
H       9.38      12.54      20.30
H      10.60      12.95      21.52
H      10.91      11.63      20.39
H       6.35      23.71      14.71
H       2.81      27.41      14.90
H       1.39      27.52      13.86
H       1.35      26.47      15.28
H      14.08      15.42       6.69
H      11.13      11.30       5.41
H       9.73      10.80       6.38
H       9.54      12.07       5.16
H      10.31       0.42      14.82
H       6.18       3.33      15.98
H       5.05       2.94      17.28
H       4.86       2.16      15.71
H       2.40      23.53      21.09
H      14.07      20.61      19.73
H      12.93      21.03      18.44
H      12.71      21.73      20.05
H       1.79       8.66      29.54
H       5.89       5.83       1.29
H       7.03       6.27       2.56
H       7.22       6.98       0.95
H      13.57       8.91       6.29
H       1.31      12.60       6.18
H       2.78      12.73       7.15
H       2.78      11.71       5.71
H      14.03      23.44      29.21
H      10.45      27.26       0.75
H       9.22      27.65      29.12
H       8.94      26.32       0.68
H      10.18      15.54      29.25
H       5.74      17.71       1.50
H       4.97      17.11       2.98
H       4.65      16.30       1.44
H       9.59       0.66      21.26
H      14.14       2.89      19.69
H      14.90       2.38      18.17
H      15.20       1.46      19.65
H       6.14       0.58       6.65
H       2.62      26.26       5.38
H       1.47      25.76       6.63
H       1.09      27.14       5.59
H       2.56      15.31      14.67
H      14.15      18.06      16.11
H      13.05      17.60      17.42
H      12.83      16.89      15.82
N       0.62      29.14      28.73
N      14.34      29.45       0.33
N       8.55      24.39       7.12
N       6.58      24.09       5.92
N      11.41       9.62      13.92
N      13.39       9.30      15.11
N       3.46      14.29      21.81
N       5.47      14.67      20.70
N       7.51       8.04      20.31
N       9.44       9.33      20.52
N       4.68      22.96      15.65
N       2.64      23.99      15.15
N      12.46      15.98       5.55
N      10.60      14.58       5.61
N       8.63      29.08      14.06
N       6.60      29.58      15.09
N       0.70      24.44      21.82
N      14.40      23.96      20.74
N       3.46       9.60      28.79
N       5.49       9.17       0.28
N      15.25       8.14       5.38
N       1.59       9.15       5.90
N      12.41      22.81       0.73
N      10.45      24.06       0.53
N       8.54      14.45      28.63
N       6.62      14.62       0.37
N      11.23      29.17      21.91
N      13.19      29.40      20.66
N       4.50       1.17       5.56
N       2.60      29.41       5.72
N       0.89      14.35      13.95
N      14.59      14.75      15.08
O       2.28       9.47       3.13
O       1.86      29.23       3.05
O       0.79       5.37       5.18
O       0.75       3.88       1.06
O       9.86      14.46       2.95
O       9.79      24.28       3.24
O       8.70      18.71       1.06
O       8.71      20.04       5.23
O       9.90      29.30      17.98
O      10.16       9.54      17.83
O      11.20       3.89      19.99
O      11.24       5.31      15.84
O       1.94      24.32      17.92
O       2.19      14.49      17.88
O       3.45      20.22      15.88
O       3.44      18.63      19.98
O       6.00      26.78      15.44
O       5.93      26.82       5.62
O       7.33      28.85      11.31
O       7.32      24.79       9.76
O      13.78      26.69      20.37
O      13.75      26.70       0.62
O      15.07      24.69      24.54
O      15.06      28.78      26.06
O      13.87      11.97       5.59
O      14.00      12.01      15.43
O      12.61      14.03       9.76
O      12.70       9.98      11.26
O       6.05      11.91       0.65
O       6.09      11.91      20.39
O       4.76       9.89      26.06
O       4.70      13.97      24.52
O      14.19       1.26       2.22
O       6.45      22.68       4.04
O      13.51       7.92      17.01
O       5.64      16.10      18.83
O       9.55      11.23      21.93
O       2.45      25.78      13.63
O      10.52      12.62       6.93
O       6.42       1.46      16.92
O      14.27      22.53      18.88
O       5.66       7.74       2.14
O       1.77      10.95       7.39
O      10.29      25.95      28.69
O       6.52      15.93       2.31
O      13.32       1.19      18.75
O       2.52      27.47       7.09
O      14.44      16.15      16.95
