19

In       5.42       7.18       6.66
In       9.14       6.88       7.79
C       4.60       9.24       8.63
C      10.33       4.54       8.49
C       8.16       7.34       4.99
C       4.51       7.13       4.26
C       8.49       9.08       9.11
O       3.79       8.25       9.02
O       5.41       9.16       7.69
O       9.50       5.28       9.16
O       7.22       7.99       5.56
O       9.13       6.77       5.61
O       7.00       6.09       7.63
O       3.73       7.12       8.09
O       4.31       8.19       4.92
O       5.02       6.08       4.82
O       8.53       7.95       9.71
O       8.81       9.17       7.87
O       6.87       4.69       8.04
