13

Co       1.78       2.53       9.63
C      -0.16       3.66       7.92
C       1.73       4.83      11.53
C       3.62       3.47      11.59
C       1.72       5.04       8.02
N       2.44       3.79      11.04
N       1.03       3.96       8.46
O       0.52       1.58      10.91
O       2.51       0.61      11.02
O       3.00       1.81       8.22
O       1.00       0.90       7.93
C       2.20       1.02       7.60
C       1.34       0.75      11.44
