17

O       0.51       0.16       9.83
O       1.73       0.02      11.65
C       1.51      -0.27      10.45
C       2.45      -1.20       9.72
C       2.14      -1.67       8.44
C       3.00      -2.55       7.76
C       2.61      -3.14       6.41
C       4.20      -2.93       8.36
C       4.51      -2.46       9.63
O       1.42      -2.99       6.07
H       1.35      -1.40       8.03
C       3.64      -1.62      10.32
H       3.84      -1.33      11.18
H       4.79      -3.50       7.91
C       5.76      -2.86      10.24
O       3.51      -3.73       5.80
N       6.77      -3.19      10.69
