17

H       4.91       9.64       0.01
H       8.35       7.54       0.13
H       7.41       9.71      -3.15
C       5.07      10.76      -2.41
C       6.02       9.83      -1.68
C       5.70       9.37      -0.40
C       6.56       8.49       0.27
C       6.18       7.90       1.63
C       7.76       8.11      -0.32
C       8.08       8.58      -1.60
C       9.33       8.18      -2.21
O       4.07      11.20      -1.80
C       7.20       9.42      -2.29
O       4.98       8.05       1.97
O       7.08       7.31       2.24
N      10.34       7.85      -2.65
O       5.30      11.05      -3.61
