14

O      17.24      12.78      18.37
O      17.24      14.09      16.51
O      14.46      12.78      18.37
O      14.46      14.10      16.51
C      14.08      16.09      19.31
C      17.61      16.08      19.31
O      17.23      15.06      19.99
O      17.23      16.38      18.13
Cu      15.85      15.29      17.25
Cu      15.85      13.87      19.25
C      17.62      13.08      17.18
O      14.46      16.39      18.12
O      14.46      15.07      19.99
C      14.08      13.08      17.18
