14

O      41.77      21.32       0.32
O      40.63      19.34       0.33
Cu      42.28      18.29       0.00
C      42.47      19.59      -2.51
C      40.70      20.62       0.38
Cu      43.50      20.41      -0.00
C      45.08      18.09      -0.38
O      43.16      20.51      -1.94
O      42.02      18.53      -1.94
O      43.76      20.17       1.94
O      42.62      18.20       1.94
O      45.15      19.37      -0.32
O      44.01      17.39      -0.32
C      43.31      19.12       2.51
