14

Cu      21.15      18.35      25.91
Cu      19.92      16.23      25.91
O      19.66      16.47      23.96
O      20.81      18.45      23.96
C      20.12      17.53      23.40
O      18.28      17.27      26.23
O      19.42      19.25      26.23
C      20.95      17.05      28.41
O      21.65      15.33      25.59
O      22.79      17.31      25.58
O      20.26      16.13      27.85
C      22.72      16.03      25.53
O      21.40      18.11      27.85
C      18.35      18.55      26.29
