16

N      42.30      25.74      13.41
Cu      41.23      25.71      16.18
N      42.16      25.15      14.58
Cu      42.86      22.88      16.18
Cu      41.23      23.83      18.84
N      40.23      26.26      17.73
N      39.51      27.35      17.96
N      40.23      25.48      18.84
N      39.51      26.05      19.79
N      43.42      23.79      13.41
N      42.84      23.97      14.58
O      41.93      24.23      17.13
N      42.84      21.74      17.73
N      42.30      21.22      19.79
N      42.16      22.14      18.84
N      43.42      20.58      17.96
