16

N      20.00      12.85      12.50
Cu      20.56      13.76       9.73
N      20.58      12.68      11.32
N      20.00      16.07       7.95
N      20.58      14.90       8.18
N      21.12      15.42       6.12
N      21.26      14.51       7.07
N      23.19      11.17       7.06
O      21.50      12.42       8.78
N      21.12      10.91      12.50
N      21.26      11.50      11.32
Cu      22.19      10.94       9.73
N      23.91       9.30       7.95
N      23.19      10.39       8.18
N      23.91      10.59       6.12
Cu      22.19      12.82       7.07
