14

O      46.19      21.58       5.92
O      46.19      20.26       7.78
C      49.34      23.57       8.72
O      48.96      21.58       5.92
O      48.96      20.26       7.78
C      45.80      23.57       8.72
O      46.18      23.87       7.54
C      45.81      20.56       6.60
O      48.96      23.87       7.53
O      46.18      22.55       9.40
Cu      47.57      21.36       8.66
Cu      47.57      22.77       6.66
O      48.96      22.55       9.40
C      49.34      20.56       6.60
