756

H      39.42       1.45      53.10
H      13.30      44.53      52.41
H      42.08       0.71       0.79
H      13.27      35.17      48.29
H      11.13      38.83      48.25
H       9.84      38.05      46.39
H      11.98      34.40      46.42
H      19.96      35.44      52.39
H      20.74      35.81       1.78
H      18.85      36.97       0.87
H      21.85      34.29      53.31
H      13.50      40.33      51.30
H      15.70      36.73      51.45
H      16.76      39.95      53.97
H      15.98      43.80       0.11
H      12.88      20.01      54.32
H      10.84      20.96      53.47
H      10.65      16.63       0.15
H       2.70      24.77      48.28
H       6.93      24.85      48.25
H       6.89      26.37      46.40
H       2.67      26.28      46.42
H      -0.36      18.83      52.36
H      -0.68      17.97       1.75
H       1.27      19.03       0.85
H      -2.30      17.77      53.28
H       7.08      22.04      51.31
H       2.86      21.86      51.42
H       5.15      19.39      53.97
H       8.73      17.49      54.68
H     -10.64      33.07      54.54
H      -8.67      34.15      53.70
H     -12.39      36.84      55.30
H      -1.03      39.13      48.32
H      -3.09      35.42      48.26
H      -1.76      34.72      46.40
H       0.29      38.42      46.44
H      -4.59      44.78      52.39
H      20.79       0.11       1.79
H      -5.47      43.28       0.87
H      21.65       1.60      53.32
H      -5.61      36.73      51.34
H      -3.57      40.43      51.46
H      -6.89      39.76      53.99
H     -10.42      37.93      54.47
H      23.28       4.39      26.79
H      23.33       6.64      25.95
H      19.17       4.81      27.67
H      22.87      15.76      20.63
H      25.06      12.14      20.57
H      26.33      12.94      18.71
H      24.14      16.55      18.76
H      16.20      15.51      24.70
H      15.29      15.21      29.47
H      17.19      14.06      28.55
H      14.31      16.65      25.62
H      22.65      10.59      23.64
H      20.48      14.21      23.77
H      19.39      11.01      26.29
H      19.21       7.06      26.83
H      23.29      31.95      25.44
H      25.32      30.87      24.74
H      25.39      33.96      28.49
H      33.44      26.19      20.61
H      29.20      26.15      20.57
H      29.24      24.64      18.72
H      33.46      24.69      18.74
H     -15.88      32.11      24.71
H     -15.66      33.03      29.48
H     -17.61      31.98      28.57
H     -13.94      33.17      25.62
H      29.07      28.96      23.63
H      33.29      29.07      23.78
H      31.02      31.59      26.29
H      27.43      32.90      27.80
H      -5.98      18.22      26.51
H      -7.82      16.93      25.65
H      -4.15      14.70      27.94
H      37.16      11.81      20.57
H      39.23      15.51      20.54
H      37.89      16.23      18.69
H      35.83      12.55      18.71
H      40.79       6.17      24.66
H      41.49       5.54      29.43
H      41.55       7.76      28.51
H      40.73       3.96      25.59
H      41.72      14.23      23.60
H      39.77      10.48      23.71
H      43.05      11.23      26.25
H      -5.98      13.40      27.09
H      39.31       4.15       2.70
H      39.40       6.45       3.40
H      42.22       4.87      55.01
H      39.41      15.81       7.51
H      37.25      12.16       7.55
H      35.97      12.95       9.40
H      38.12      16.58       9.38
H      -6.32      15.52       3.41
H      -5.30      15.17      54.02
H      -7.19      14.01      54.92
H      -4.43      16.67       2.50
H      39.63      10.64       4.49
H      41.83      14.24       4.34
H      42.88      11.01       1.83
H      42.21       7.24       0.32
H     -13.48      30.97       1.51
H     -15.52      30.02       2.35
H     -15.58      34.41       0.26
H      28.79      26.19       7.55
H      33.02      26.18       7.56
H      33.01      24.67       9.42
H      28.79      24.69       9.41
H      25.68      32.15       3.44
H      25.60      33.00      54.05
H      27.55      31.94      54.96
H      23.74      33.21       2.52
H      33.13      28.94       4.49
H      28.91      29.12       4.39
H      31.19      31.59       1.83
H     -17.62      33.48       1.09
H      15.47      17.90       1.26
H      17.44      16.83       2.11
H      13.71      14.13       0.56
H      25.08      11.87       7.52
H      23.04      15.58       7.57
H      24.38      16.28       9.42
H      26.41      12.58       9.39
H      21.51       6.21       3.46
H      20.91       5.49      54.07
H      20.87       7.71      54.99
H      21.55       4.00       2.54
H      20.49      14.26       4.51
H      22.53      10.56       4.39
H      19.21      11.22       1.87
H      15.67      13.05       1.40
H      23.80       1.00      29.27
H      -2.61      44.14      30.11
H      19.82       0.85      27.88
H      -3.34      35.18      35.23
H      -1.17      38.82      35.25
H       0.12      38.04      37.10
H      -2.04      34.41      37.10
H     -10.02      35.47      31.13
H     -10.94      35.77      26.37
H      -9.05      36.93      27.28
H     -11.91      34.32      30.21
H      -3.52      40.32      32.19
H      -5.79      36.76      32.08
H      -6.78      39.97      29.53
H      -6.60      44.00      28.72
H      -2.81      19.45      29.04
H      -0.89      20.62      29.89
H      -0.38      16.12      28.12
H       7.24      24.79      35.20
H       3.00      24.86      35.25
H       3.05      26.37      37.11
H       7.28      26.29      37.07
H      10.36      18.88      31.13
H      10.56      17.95      26.37
H       8.62      19.02      27.28
H      12.30      17.81      30.21
H       2.88      22.01      32.18
H       7.10      21.93      32.06
H       4.87      19.39      29.54
H       1.54      17.27      28.96
H      21.02      33.26      30.40
H      19.07      34.49      31.08
H      21.74      36.09      27.35
H      10.97      39.16      35.20
H      13.07      35.48      35.25
H      11.74      34.76      37.10
H       9.66      38.43      37.07
H      14.58      44.82      31.11
H      41.47       0.07      26.34
H      15.32      43.24      27.25
H      40.73       1.65      30.19
H      15.56      36.78      32.19
H      13.54      40.49      32.04
H      16.86      39.79      29.53
H      19.81      37.33      28.03
H       6.14      33.87      42.62
H       6.27      33.64      40.87
H       7.33      35.45      39.39
H       7.88      36.95      40.12
H       8.62      33.25      39.80
H      10.03      33.21      40.84
H      10.01      36.95      41.58
H      10.87      35.45      41.91
H       7.65      37.34      42.65
H       6.98      36.10      43.69
H       9.81      33.61      43.37
H       8.24      33.88      44.10
H       9.73      37.29      44.10
H       7.64      31.73      43.15
H       5.18      36.01      40.34
H      11.03      35.03      39.39
H       5.12      31.64      42.62
H       4.84      31.64      40.88
H       5.88      29.82      39.39
H       6.91      28.59      40.12
H       3.33      29.80      39.81
H       2.59      28.60      40.86
H       5.84      26.75      41.59
H       4.11      26.75      41.92
H       7.36      28.60      42.65
H       6.62      29.80      43.70
H       3.05      28.59      43.38
H       4.07      29.82      44.11
H       6.29      26.82      44.11
H       2.52      31.41      43.16
H       7.44      31.40      40.34
H       3.67      26.82      39.40
H       3.69      33.64      42.63
H       3.83      33.87      40.88
H       1.73      33.88      39.40
H       0.15      33.61      40.13
H       2.99      36.09      39.80
H       2.32      37.34      40.85
H      -0.91      35.45      41.59
H      -0.04      36.95      41.91
H      -0.07      33.22      42.65
H       1.35      33.26      43.70
H       2.08      36.96      43.38
H       2.64      35.46      44.11
H      -1.07      35.04      44.10
H       4.79      36.01      43.16
H       2.32      31.73      40.35
H       0.24      37.29      39.39
H      29.98      17.12      14.94
H      29.84      17.36      13.19
H      28.78      15.55      11.70
H      28.23      14.05      12.43
H      27.49      17.75      12.12
H      26.08      17.79      13.17
H      26.11      14.05      13.90
H      25.24      15.55      14.23
H      28.47      13.66      14.96
H      29.14      14.90      16.01
H      26.30      17.39      15.70
H      27.88      17.11      16.42
H      26.39      13.70      16.41
H      28.48      19.26      15.48
H      30.94      14.99      12.65
H      25.08      15.97      11.72
H      31.00      19.36      14.94
H      31.27      19.36      13.19
H      30.22      21.18      11.71
H      29.20      22.41      12.45
H      32.77      21.20      12.11
H      33.51      22.40      13.16
H      30.27      24.25      13.91
H      32.00      24.25      14.23
H      28.76      22.40      14.97
H      29.50      21.20      16.02
H      33.07      22.41      15.69
H      32.05      21.18      16.42
H      29.84      24.18      16.42
H      33.61      19.59      15.47
H      28.67      19.60      12.67
H      32.44      24.17      11.70
H      32.42      17.36      14.93
H      32.28      17.12      13.19
H      34.38      17.12      11.70
H      35.96      17.39      12.43
H      33.12      14.90      12.11
H      33.79      13.66      13.15
H      37.02      15.55      13.89
H      36.15      14.04      14.21
H      36.18      17.78      14.95
H      34.77      17.74      16.00
H      34.03      14.04      15.68
H      33.48      15.54      16.41
H      37.18      15.96      16.41
H      31.33      14.98      15.47
H      33.78      19.26      12.65
H      35.87      13.70      11.69
C      12.32      37.07      48.44
C      14.69      43.91      53.89
C      19.29      36.27      54.23
C      15.47      44.36      54.98
C      41.49       0.40       0.02
C      40.78       1.24      54.72
C      40.02       0.79      53.62
C      13.86      44.83      53.21
C      11.32      37.89      47.88
C      10.56      37.43      46.78
C      10.80      36.16      46.22
C      11.78      35.33      46.81
C      12.54      35.78      47.90
C      20.14      35.51      53.39
C      21.25      34.83      53.93
C      21.53      34.91      55.32
C      20.56      35.74       0.77
C      19.45      36.42       0.24
C      16.37      38.23      52.79
C      15.54      37.68      51.79
C      14.48      38.45      51.25
C      14.26      39.77      51.71
C      15.09      40.32      52.71
C      16.15      39.55      53.25
C      18.28      36.92      53.73
C      17.36      37.53      53.28
C      14.78      42.68      53.49
C      14.91      41.55      53.11
C      13.73      37.95      50.31
C      13.05      37.51      49.42
C       4.82      24.67      48.43
C       9.60      19.31      53.99
C       0.69      18.99      54.21
C       9.60      18.03      54.60
C      10.80      17.48      55.09
C      12.02      18.19      54.99
C      12.01      19.47      54.40
C      10.81      20.03      53.90
C       6.03      25.15      47.88
C       6.00      26.03      46.78
C       4.77      26.45      46.22
C       3.57      25.99      46.80
C       3.59      25.10      47.89
C      -0.39      18.64      53.37
C      -1.53      18.02      53.91
C      -1.61      17.73      55.29
C      -0.65      18.17       0.75
C       0.49      18.79       0.22
C       3.84      20.56      52.77
C       3.78      21.55      51.77
C       4.96      22.10      51.23
C       6.22      21.65      51.70
C       6.29      20.66      52.71
C       5.10      20.12      53.24
C       1.76      19.55      53.71
C       2.75      20.04      53.26
C       8.49      19.81      53.54
C       7.45      20.24      53.13
C       4.90      23.00      50.29
C       4.85      23.81      49.41
C      -2.18      37.34      48.46
C      -9.36      36.14      54.01
C      -4.97      43.78      54.24
C     -10.45      36.90      54.48
C     -11.61      36.26      54.97
C     -11.69      34.86      55.00
C     -10.60      34.09      54.54
C      -9.44      34.73      54.04
C      -2.38      36.06      47.89
C      -1.60      35.65      46.79
C      -0.62      36.51      46.23
C      -0.41      37.77      46.83
C      -1.19      38.19      47.92
C      -4.74      44.90      53.40
C      21.49       0.81      53.94
C      21.28       1.02      55.32
C      -5.26      45.37       0.78
C      -5.29      44.07       0.24
C      -5.21      40.27      52.80
C      -4.32      39.81      51.80
C      -4.46      38.51      51.27
C      -5.50      37.67      51.73
C      -6.39      38.12      52.73
C      -6.24      39.42      53.27
C      -5.02      42.58      53.73
C      -5.09      41.47      53.28
C      -8.30      36.74      53.55
C      -7.36      37.37      53.15
C      -3.66      38.10      50.32
C      -2.94      37.74      49.44
C      23.84      13.88      20.77
C      21.28       7.05      26.32
C      16.87      14.68      26.54
C      20.08       6.51      26.82
C      20.05       5.19      27.31
C      21.22       4.40      27.31
C      22.42       4.95      26.81
C      22.45       6.26      26.31
C      24.86      13.07      20.20
C      25.60      13.54      19.10
C      25.34      14.82      18.55
C      24.35      15.63      19.14
C      23.60      15.16      20.24
C      16.02      15.44      25.71
C      14.91      16.11      26.25
C      14.62      16.03      27.63
C      15.48      15.28      28.46
C      16.59      14.61      27.93
C      19.79      12.72      25.11
C      20.64      13.26      24.11
C      21.69      12.48      23.58
C      21.90      11.17      24.04
C      21.06      10.62      25.04
C      20.01      11.40      25.57
C      17.89      14.04      26.04
C      18.81      13.42      25.59
C      21.29       8.27      25.85
C      21.22       9.40      25.45
C      22.45      12.98      22.64
C      23.12      13.42      21.76
C      31.32      26.31      20.76
C      26.56      31.77      26.22
C     -16.92      31.94      26.56
C      26.56      32.67      27.31
C      25.37      33.29      27.72
C      24.15      33.02      27.05
C      24.16      32.14      25.95
C      25.35      31.50      25.54
C      30.11      25.85      20.20
C      30.13      24.96      19.10
C      31.36      24.54      18.54
C      32.56      24.98      19.13
C      32.54      25.87      20.22
C     -15.84      32.30      25.72
C     -14.70      32.92      26.25
C     -14.62      33.20      27.64
C     -15.69      32.84      28.47
C     -16.84      32.22      27.94
C      32.32      30.40      25.12
C      32.38      29.40      24.12
C      31.19      28.87      23.57
C      29.94      29.34      24.03
C      29.87      30.33      25.03
C      31.07      30.86      25.57
C     -17.99      31.39      26.06
C      33.42      30.91      25.61
C      27.68      31.24      25.81
C      28.72      30.78      25.44
C      31.25      27.97      22.63
C      31.29      27.16      21.75
C      38.32      13.59      20.72
C      -7.06      15.04      26.29
C      41.17       7.17      26.50
C      -5.99      14.41      26.96
C      -4.92      15.18      27.45
C      -4.89      16.58      27.29
C      -5.98      17.21      26.63
C      -7.05      16.45      26.13
C      38.51      14.87      20.17
C      37.73      15.30      19.08
C      36.75      14.45      18.52
C      36.54      13.18      19.10
C      37.32      12.75      20.19
C      40.93       6.05      25.67
C      40.90       4.75      26.21
C      41.11       4.55      27.60
C      41.34       5.67      28.43
C      41.37       6.96      27.89
C      41.39      10.68      25.06
C      40.50      11.11      24.05
C      40.61      12.42      23.52
C      41.63      13.28      23.99
C      42.52      12.85      24.99
C      42.40      11.55      25.53
C      41.22       8.37      26.00
C      41.29       9.47      25.55
C      -8.05      14.33      25.83
C      43.47      13.64      25.42
C      39.80      12.81      22.58
C      39.08      13.18      21.70
C      38.45      13.91       7.36
C      40.80       7.06       1.91
C      -6.99      14.70       1.56
C      41.57       6.61       0.82
C      41.51       5.26       0.41
C      40.67       4.35       1.09
C      39.91       4.80       2.19
C      39.96       6.15       2.59
C      37.44      13.10       7.92
C      36.69      13.56       9.01
C      36.94      14.84       9.58
C      37.93      15.65       8.99
C      38.68      15.20       7.89
C      -6.15      15.46       2.40
C      -5.03      16.13       1.87
C      -4.75      16.07       0.48
C      -5.48      15.24      55.02
C      -6.71      14.64       0.18
C      42.49      12.74       3.00
C      41.66      13.29       4.00
C      40.61      12.52       4.55
C      40.39      11.21       4.09
C      41.21      10.65       3.09
C      42.27      11.42       2.55
C      -8.00      14.05       2.06
C      43.48      13.43       2.51
C      40.90       8.29       2.31
C      41.03       9.42       2.69
C      39.86      13.02       5.49
C      39.18      13.46       6.37
C      30.91      26.33       7.39
C     -16.76      31.67       1.80
C      26.73      31.99       1.60
C     -16.76      32.94       1.18
C     -15.56      33.49       0.70
C     -14.34      32.78       0.82
C     -14.35      31.50       1.42
C     -15.55      30.95       1.91
C      32.12      25.87       7.94
C      32.11      24.99       9.03
C      30.89      24.55       9.60
C      29.68      24.99       9.02
C      29.69      25.88       7.93
C      25.65      32.34       2.44
C      24.51      32.96       1.90
C      24.43      33.25       0.51
C      25.63      32.80      55.06
C      26.65      32.26       0.22
C      29.89      30.42       3.03
C      29.82      29.44       4.04
C      31.01      28.89       4.58
C      32.27      29.33       4.10
C      32.33      30.32       3.09
C      31.14      30.86       2.56
C      27.80      31.43       2.10
C      28.79      30.94       2.55
C     -17.87      31.17       2.25
C      33.49      30.74       2.66
C      30.95      27.99       5.52
C      30.92      27.19       6.40
C      23.94      13.66       7.38
C      16.74      14.84       1.83
C      21.13       7.20       1.62
C      15.65      14.07       1.38
C      14.49      14.71       0.88
C      14.41      16.11       0.83
C      15.51      16.88       1.28
C      16.66      16.25       1.78
C      23.75      14.94       7.94
C      24.54      15.35       9.03
C      25.51      14.49       9.59
C      25.71      13.22       9.00
C      24.93      12.80       7.91
C      21.36       6.09       2.45
C      21.38       4.79       1.91
C      21.17       4.58       0.53
C      21.07       5.62      55.07
C      20.92       7.00       0.24
C      20.90      10.72       3.05
C      21.79      11.18       4.05
C      21.65      12.48       4.58
C      20.61      13.32       4.11
C      19.72      12.86       3.12
C      19.86      11.56       2.59
C      21.08       8.40       2.12
C      21.01       9.51       2.57
C      17.80      14.24       2.30
C      18.74      13.61       2.70
C      22.45      12.89       5.52
C      23.18      13.26       6.40
C      -2.38      37.07      35.07
C      -4.63      43.87      29.50
C      -9.36      36.31      29.29
C      -5.71      44.49      28.84
C      20.62       0.42      28.35
C      21.83       1.14      28.51
C      22.91       0.50      29.15
C      -3.41      44.57      29.64
C      -1.36      37.89      35.62
C      -0.60      37.43      36.72
C      -0.85      36.16      37.28
C      -1.84      35.34      36.71
C      -2.60      35.79      35.61
C     -10.20      35.54      30.12
C     -11.31      34.87      29.59
C     -11.60      34.94      28.20
C     -10.75      35.70      27.37
C      -9.64      36.38      27.90
C      -6.43      38.26      30.73
C      -5.60      37.71      31.73
C      -4.54      38.46      32.27
C      -4.30      39.77      31.79
C      -5.12      40.33      30.79
C      -6.18      39.57      30.26
C      -8.34      36.95      29.79
C      -7.42      37.57      30.24
C      -4.75      42.65      29.95
C      -4.91      41.54      30.36
C      -3.79      37.96      33.21
C      -3.11      37.52      34.09
C       5.11      24.68      35.06
C       0.50      19.05      29.50
C       9.32      19.05      29.29
C       0.63      17.75      28.98
C      -0.50      17.07      28.49
C      -1.77      17.68      28.49
C      -1.89      18.99      29.01
C      -0.77      19.67      29.51
C       3.91      25.16      35.62
C       3.94      26.04      36.72
C       5.17      26.46      37.28
C       6.37      26.01      36.69
C       6.35      25.12      35.59
C      10.39      18.69      30.13
C      11.53      18.06      29.59
C      11.61      17.78      28.20
C      10.53      18.15      27.37
C       9.39      18.77      27.91
C       6.15      20.60      30.72
C       6.20      21.59      31.72
C       5.00      22.12      32.25
C       3.75      21.64      31.79
C       3.70      20.64      30.79
C       4.91      20.12      30.26
C       8.25      19.61      29.79
C       7.26      20.09      30.24
C       1.55      19.67      29.97
C       2.56      20.17      30.37
C       5.04      23.02      33.20
C       5.08      23.83      34.08
C      12.14      37.39      35.05
C      19.25      36.01      29.61
C      14.95      43.83      29.26
C      20.04      36.46      28.53
C      21.17      35.73      28.12
C      21.54      34.54      28.79
C      20.76      34.11      29.88
C      19.62      34.83      30.28
C      12.35      36.11      35.62
C      11.57      35.69      36.71
C      10.59      36.53      37.27
C      10.36      37.80      36.68
C      11.14      38.23      35.59
C      14.72      44.94      30.10
C      40.90       0.86      29.56
C      41.10       1.07      28.18
C      15.12      45.33      27.35
C      15.15      44.03      27.88
C      15.18      40.32      30.71
C      14.29      39.87      31.70
C      14.42      38.57      32.25
C      15.45      37.72      31.79
C      16.35      38.16      30.79
C      16.21      39.46      30.25
C      15.00      42.62      29.77
C      15.07      41.52      30.22
C      18.23      36.71      30.01
C      17.32      37.39      30.39
C      13.61      38.17      33.19
C      12.89      37.80      34.07
C       8.15      33.38      41.95
C       9.05      33.69      40.70
C       6.77      34.08      41.75
C       6.86      35.63      41.54
C       7.79      35.88      40.29
C       9.22      35.23      40.47
C       9.87      35.87      41.74
C       9.00      35.62      43.02
C       7.57      36.25      42.79
C       8.83      34.07      43.20
C       9.64      36.30      44.15
C       7.88      31.95      42.21
C       5.47      36.11      41.28
C      10.13      35.45      39.34
C       3.68      30.14      41.96
C       3.49      29.21      40.71
C       4.98      30.99      41.75
C       6.27      30.14      41.54
C       6.02      29.21      40.29
C       4.75      28.29      40.48
C       4.98      27.40      41.75
C       5.20      28.29      43.02
C       6.46      29.21      42.79
C       3.93      29.21      43.21
C       5.47      27.39      44.16
C       2.57      31.10      42.22
C       7.38      31.10      41.28
C       4.48      27.39      39.35
C       3.11      35.63      41.96
C       2.39      36.26      40.71
C       3.20      34.08      41.75
C       1.81      33.39      41.54
C       1.13      34.07      40.29
C       0.97      35.63      40.48
C       0.09      35.88      41.75
C       0.75      35.24      43.02
C       0.91      33.69      42.80
C       2.18      35.88      43.21
C      -0.16      35.46      44.16
C       4.49      36.11      42.21
C       2.09      31.95      41.29
C       0.33      36.30      39.34
C      27.96      17.61      14.28
C      27.06      17.31      13.03
C      29.35      16.92      14.06
C      29.26      15.37      13.85
C      28.32      15.13      12.60
C      26.89      15.77      12.79
C      26.24      15.12      14.06
C      27.12      15.37      15.34
C      28.54      14.74      15.10
C      27.28      16.93      15.53
C      26.48      14.69      16.47
C      28.24      19.05      14.54
C      30.64      14.89      13.59
C      25.98      15.55      11.66
C      32.43      20.86      14.27
C      32.61      21.79      13.02
C      31.13      20.01      14.07
C      29.84      20.86      13.86
C      30.09      21.79      12.61
C      31.36      22.71      12.79
C      31.13      23.60      14.07
C      30.91      22.71      15.34
C      29.66      21.79      15.11
C      32.18      21.79      15.52
C      30.65      23.61      16.47
C      33.54      19.90      14.53
C      28.73      19.90      13.61
C      31.62      23.61      11.66
C      33.01      15.37      14.27
C      33.72      14.74      13.01
C      32.91      16.92      14.06
C      34.30      17.61      13.85
C      34.98      16.93      12.60
C      35.14      15.37      12.78
C      36.02      15.12      14.05
C      35.37      15.76      15.33
C      35.20      17.30      15.10
C      33.94      15.12      15.51
C      36.28      15.54      16.46
C      31.62      14.88      14.53
C      34.02      19.05      13.59
C      35.78      14.69      11.64
N      40.76       2.52      55.02
N      22.45      34.39       0.51
N      10.16      35.68      45.15
N      13.05      17.80       0.06
N      -2.77      17.21       0.49
N       4.68      27.25      45.16
N     -12.94      34.42       0.08
N      21.16       2.30       0.52
N       0.11      36.20      45.17
N      21.11       3.16      27.77
N      13.59      16.63      28.20
N      25.98      15.30      17.48
N      23.03      33.65      27.35
N     -13.58      33.80      28.20
N      31.44      23.75      17.48
N      -3.91      17.35      27.74
N      41.11       3.35      28.17
N      36.01      14.77      17.46
N      40.64       3.06       0.79
N      -3.59      16.59      55.29
N      36.30      15.31      10.64
N     -13.18      33.25       0.37
N      23.51      33.76      55.32
N      30.81      23.76      10.67
N      13.28      16.64       0.37
N      21.29       3.30      55.33
N      26.25      14.80      10.65
N      22.00       2.37      28.06
N     -12.64      34.35      27.63
N      -0.20      35.68      38.35
N      -2.78      16.97      28.03
N      12.64      17.18      27.63
N       5.27      27.25      38.34
N      22.64      33.88      28.49
N      41.10       2.26      27.61
N       9.85      36.21      38.34
