20

C       2.31      10.93      11.57
C       2.15      12.20      11.02
C       3.25      13.07      10.96
C       4.47      12.61      11.49
C       4.54      11.34      12.05
C       2.36      14.70       9.25
C       2.41      15.96       8.66
C       4.00      16.68      10.18
C       4.01      15.45      10.82
C       3.19      14.41      10.34
H       1.48      10.23      11.62
H       1.17      12.52      10.66
H       5.37      13.22      11.45
H       5.46      10.97      12.49
H       1.68      13.95       8.85
H       1.79      16.22       7.80
H       4.63      17.51      10.51
H       4.64      15.31      11.69
N       3.49      10.50      12.07
N       3.22      16.93       9.11
