28

O       2.21       2.04      10.54
O       0.67       0.76       9.55
O      -1.81      -1.12      15.83
O      -1.53       1.01      16.50
O       1.62       5.11      10.62
O      -0.20       5.63       9.49
O       2.40       3.80      14.12
O       1.13       4.77      15.68
H       0.52      -1.05      11.52
H      -0.55      -1.66      13.71
H      -0.79       2.48      14.75
H      -1.41       4.33      11.41
H      -0.59       3.06      10.52
H      -0.81       4.43      14.00
H       0.29       5.45      13.05
C       1.12       1.31      10.58
C       0.46       1.06      11.90
C       0.23      -0.28      12.24
C      -0.34      -0.62      13.46
C      -0.69       0.39      14.36
C      -1.37       0.07      15.65
C      -0.48       1.74      14.02
C       0.07       2.09      12.78
N       0.28       3.47      12.41
C      -0.42       3.91      11.19
C       0.17       4.45      13.49
C       0.38       4.93      10.40
C       1.28       4.33      14.53
