36

O      -0.16       3.86      12.76
C      -5.58       5.31      16.29
O      -0.39       2.28      14.43
C      -0.76       3.42      13.86
H      -3.23       6.63      16.08
H      -3.19       2.35      13.57
H       2.06       6.89      16.30
H       2.19       8.49      14.41
H       0.30       8.69      12.82
H      -1.69       7.23      13.06
H       0.08       5.41      16.54
H      -5.03       1.12      15.03
H      -6.98      -0.08      14.09
H      -6.50       4.81      13.34
H      -8.41       3.58      12.36
H      -8.62       1.13      12.70
C      -2.03       4.02      14.27
C      -2.06       5.28      14.89
C      -3.23       5.69      15.55
C      -4.39       4.90      15.51
C      -4.40       3.73      14.70
C      -3.20       3.28      14.14
C      -5.66       3.06      14.31
C      -5.80       1.68      14.51
C      -6.88       0.99      13.95
C      -7.81       1.67      13.17
C      -7.69       3.05      12.97
C      -6.61       3.75      13.53
C      -0.92       6.20      14.80
C       0.13       6.12      15.72
C       1.25       6.95      15.59
C       1.32       7.86      14.53
C       0.25       7.97      13.63
C      -0.87       7.15      13.77
O      -6.51       4.45      16.61
O      -5.65       6.55      16.74
