36

C       3.95      -0.32      28.69
C       4.05      -1.57      29.32
C       5.26      -1.97      29.90
C       6.35      -1.09      29.93
C       6.24       0.17      29.35
C       5.05       0.55      28.71
C      -0.84       1.19      25.84
C      -1.81       0.21      25.56
C      -2.91       0.53      24.76
C      -3.04       1.81      24.21
C      -2.07       2.78      24.48
C      -0.98       2.48      25.29
C       3.00      -1.85      26.35
O       4.30      -1.81      26.14
O       2.26      -2.78      25.77
C      -0.30       2.25      28.60
O       0.02       2.80      29.75
O      -1.55       2.21      28.23
H       0.93      -0.66      25.16
H       2.22       1.60      29.39
H      -3.66      -0.23      24.55
H      -3.89       2.04      23.58
H      -2.17       3.76      24.04
H      -0.25       3.24      25.51
H      -1.71      -0.78      25.97
H       3.20      -2.25      29.33
H       5.35      -2.96      30.32
H       4.99       1.52      28.23
H       7.07       0.86      29.37
H       7.27      -1.39      30.40
C       0.71       1.44      27.85
C       0.38       0.83      26.61
C       1.19      -0.19      26.10
C       2.32      -0.62      26.80
C       2.72       0.06      27.98
C       1.92       1.10      28.48
