85

Mn      13.77       4.58      10.79
Mn       2.81       7.89       5.40
Mn      16.32      13.49       5.40
H       5.98       9.19       0.45
H       8.44       9.08       0.45
H       6.90       6.71      10.46
H       4.44       6.62      10.49
H      12.05       8.24       7.25
H       9.83       9.36       7.24
H      10.06       9.40       2.92
H      12.27       8.29       3.12
H       7.69       9.51       6.92
H       5.71      11.02       6.89
H       3.23       1.41       3.23
H       8.85      11.22       3.11
H      11.36       6.60      10.33
H       8.90       6.70      10.35
H      10.45       9.07       0.34
H      12.91       9.17       0.30
H       5.29       7.54       3.55
H       7.51       6.42       3.56
H       7.29       6.38       7.88
H       5.08       7.48       7.68
H       9.66       6.27       3.88
H      11.63       4.75       3.90
H      14.11      14.36       7.56
H       8.50       4.56       7.68
C      15.25      11.18       2.92
C      15.02      10.47       4.10
C      11.88       1.39       2.53
C      14.86      10.79       5.54
C       6.57      10.09       0.27
C       7.95      10.04       0.27
C       8.71      11.21       0.03
C       6.42       5.75      10.62
C       5.03       5.71      10.64
C      11.56       8.50       6.31
C      10.32       9.11       6.29
C       9.73       9.49       5.07
C      10.45       9.16       3.90
C      11.69       8.54       4.00
C       8.48      10.25       5.03
C       7.55      10.20       6.09
C       6.43      11.02       6.07
C       7.04      11.92       4.02
C       8.18      11.12       3.96
C       2.10       4.59       7.88
C       2.33       5.30       6.70
C       5.47      14.38       8.26
C       2.49       4.98       5.25
C      10.77       5.70      10.51
C       9.39       5.74      10.52
C       8.63       4.57      10.77
C      10.93      10.03       0.17
C      12.32      10.07       0.15
C       5.78       7.28       4.49
C       7.03       6.66       4.50
C       7.61       6.29       5.73
C       6.90       6.62       6.89
C       5.66       7.24       6.79
C       8.87       5.53       5.77
C       9.80       5.58       4.71
C      10.91       4.75       4.72
C      10.30       3.86       6.77
C       9.17       4.66       6.83
N       3.52      10.26       1.91
N       3.31       9.03       2.40
N       3.17       9.16       3.73
N       5.86      11.22       0.05
N      12.26       8.21       5.19
N       6.18      11.89       5.06
N      13.83       5.51       8.89
N      14.04       6.74       8.40
N      14.18       6.61       7.07
N      11.49       4.57      10.72
N       5.09       7.57       5.61
N      11.16       3.88       5.73
O      11.79       1.64       1.28
O      12.15       2.27       3.39
O      14.59       9.79       6.30
O      14.98      11.98       5.96
O       5.56      14.13       9.52
O       5.19      13.50       7.40
O       2.76       5.98       4.49
O       2.36       3.79       4.84
