72

Zn       7.56      17.19      30.68
C       9.12      13.51      32.46
C       8.38      12.55      31.76
C       8.88      14.85      32.19
C       7.23      14.33      30.60
C       6.25      14.87      29.64
C       5.46      14.06      28.82
C       7.43      12.96      30.83
C       4.42      16.03      27.91
C       5.26      16.79      28.73
C      10.18      18.34      29.51
Zn       9.74      17.80      25.33
C       4.53      14.64      27.97
O      10.02      15.99      24.69
C      10.65      20.58      24.40
C      11.85      21.12      23.88
H       9.42      15.65      32.70
H       9.88      13.20      33.17
H       8.55      11.49      31.95
O       7.76      18.40      32.15
H       6.85      12.22      30.28
C      10.74      18.43      28.21
C      10.95      15.25      25.25
H       5.23      17.88      28.72
H       5.57      12.98      28.84
H       3.88      14.02      27.34
H       3.70      16.50      27.24
Zn      14.70      20.24      23.37
Zn      12.49      20.81      18.03
O      12.70      19.56      16.59
C      12.13      19.89      15.45
H      14.35      22.36      16.00
H      14.82      24.80      15.53
H      13.49      26.51      16.76
H      11.80      25.79      18.42
C      13.81      23.15      16.51
C      14.06      24.49      16.24
C      13.32      25.45      16.94
C      12.37      25.04      17.88
H      10.17      20.13      20.00
C      12.17      23.68      18.10
O      14.98      22.05      24.01
C      11.19      23.14      19.07
C      10.40      23.95      19.88
C       9.36      21.98      20.80
C      10.20      21.22      19.99
C      15.13      19.68      19.18
C       9.46      23.37      20.74
C       5.69      17.44      24.29
C       6.89      16.91      24.82
N       6.14      16.23      29.58
N       7.96      15.25      31.28
N       8.94      17.78      29.35
N       8.73      17.54      28.05
N       9.80      17.93      27.35
C      15.71      19.57      20.47
C      15.91      22.77      23.45
N      11.08      21.78      19.13
N      12.90      22.75      17.42
N      13.89      20.25      19.36
N      13.70      20.48      20.66
N      14.78      20.08      21.35
C       7.22      18.10      33.32
N      12.14      18.96      24.21
N      10.88      19.24      24.58
N      12.74      20.07      23.79
H      10.51      25.03      19.86
H       8.82      23.99      21.36
H       8.64      21.52      21.47
N       7.78      17.95      24.90
N       7.18      19.06      24.48
N       5.92      18.78      24.12
