15

N       3.89       9.97      29.68
Cu       3.86      11.18      28.13
N       7.11      13.15      30.78
C       8.23      14.75      29.84
C       8.19      13.38      31.55
C       2.78      12.83      25.90
N       7.13      13.98      29.75
C       4.07      14.61      26.02
C       4.39       9.20      31.64
Cu       5.70      11.83      31.00
C       3.26       8.79      29.80
N       4.36      13.79      27.04
N       3.59      12.72      26.97
Cu       5.76      13.92      28.38
N       4.57      10.23      30.78
