15

C       9.04      31.56       4.40
C       8.94      30.07       2.79
C      14.43      29.55       8.40
C      13.01      31.22       8.37
C      12.66      25.79       2.70
C      14.17      25.61       4.29
N       9.99      29.80       3.58
N      10.05      30.69       4.54
N      12.78      30.43       7.30
N      13.63      29.43       7.32
N      13.45      26.74       4.49
N      12.54      26.84       3.54
Cu      11.43      30.60       5.91
Cu      11.22      28.29       3.47
Cu      13.62      28.04       5.96
