20

Cu       0.49       2.73       5.00
Cu      -0.37       3.90       7.14
C       2.12       2.43       2.42
C       0.67       5.61       5.02
C      -2.25       3.52       4.92
C      -0.54       1.01       7.10
C      -1.99       4.20       9.70
C      -1.59       6.23       8.67
C       2.38       3.10       7.20
C       1.72       0.40       3.45
N       1.49       1.72       3.38
N      -1.36       4.90       8.74
O      -0.77       2.04       7.83
O      -1.37       2.94       4.22
O       0.89       4.58       4.30
O       0.17       5.61       6.19
O      -0.04       1.02       5.93
O       2.24       2.73       5.99
O      -2.12       3.89       6.13
O       1.50       3.68       7.91
