204

Cu      10.22       2.54       8.19
Cu       2.61      10.22      16.34
Cu       8.94       8.88      12.27
Cu       3.89       3.87       4.09
H      12.46       3.31       6.61
H       0.17       3.82       4.21
H       8.61       4.39       3.75
H       8.37       3.85       6.16
H      11.18       6.93      12.47
H      12.16       6.02      14.55
H       8.21       6.12      16.31
H       7.37       6.99      14.14
H       0.37       9.49      14.75
H      12.64       8.97      12.36
H       4.19       8.39      11.86
H       4.45       8.95      14.26
H       1.64       5.84       4.26
H       0.65       6.80       6.31
H       4.58       6.68       8.11
H       5.43       5.74       5.98
H       9.67       6.65      10.66
H      10.15       6.24       8.25
H      10.69      10.51       7.79
H      10.19      10.74      10.21
H       0.58       7.96       0.19
H      12.28       7.00       2.23
H      12.45      10.93       4.01
H       0.73      11.76       1.89
H       3.13       6.09       2.48
H       2.63       6.49       0.07
H       2.10       2.23      15.98
H       2.60       1.99       2.05
H      12.16       4.78       8.39
H       0.43       5.77      10.43
H       0.34       1.83      12.21
H      12.10       0.99      10.08
H       6.74       9.66      13.88
H       6.36      10.16      16.29
H      10.61      10.68       0.35
H      10.84      10.16      14.28
H       7.97       0.54       7.99
H       7.09      12.28       5.94
H      11.02      12.48       4.15
H      11.76       0.71       6.29
H       6.10       3.10       5.68
H       6.52       2.59       8.08
H       2.24       2.05       8.54
H       2.01       2.59       6.13
H       4.86      12.19      16.15
H       5.76       0.40      14.09
H       1.81       0.32      12.33
H       1.05      12.14      14.48
H       9.47       0.30       9.75
H       9.04      12.60      12.15
H       8.42       4.12      12.67
H       8.95       4.39      10.26
H       5.81       1.61       3.90
H       6.74       0.60       1.84
H       6.74       4.55       0.07
H       5.82       5.41       2.22
H       3.38      12.44       1.60
H       3.83       0.10       3.99
H       4.43       8.57       4.43
H       3.88       8.35       2.03
H       6.95      11.13      12.08
H       6.03      12.10      10.01
H       6.15       8.15       8.26
H       7.05       7.32      10.42
C      11.64       3.55       5.94
C      11.87       3.82       4.61
C      10.78       4.16       3.77
C       9.49       4.15       4.34
C       9.35       3.85       5.69
C      11.06       4.54       2.42
C      10.82       5.36       0.43
C      10.54       6.72      13.34
C      11.09       6.21      14.49
C      10.26       5.95      15.61
C       8.89       6.26      15.48
C       8.42       6.75      14.27
C       1.19       9.25      14.07
C       0.94       8.97      12.75
C       2.02       8.63      11.90
C       3.31       8.64      12.46
C       3.47       8.95      13.80
C       1.73       8.25      10.55
C       1.95       7.44       8.56
C       2.27       6.05       5.13
C       1.71       6.59       6.27
C       2.54       6.86       7.39
C       3.90       6.53       7.27
C       4.38       6.00       6.08
C       9.90       7.48       9.99
C      10.16       7.25       8.65
C      10.47       8.34       7.81
C      10.47       9.63       8.39
C      10.19       9.76       9.74
C      10.85       8.07       6.46
C      11.65       8.31       4.46
C       0.37       8.60       1.05
C      12.51       8.06       2.18
C      12.25       8.89       3.30
C      12.60      10.25       3.18
C       0.45      10.71       2.00
C       2.89       5.26       1.81
C       2.63       5.48       0.48
C       2.33       4.40      15.99
C       2.30       3.11       0.22
C       2.60       2.97       1.57
C       1.95       4.68      14.64
C       1.12       4.45      12.65
C      12.39       4.15       9.25
C       0.23       4.70      10.38
C       0.52       3.87      11.49
C       0.18       2.50      11.38
C      12.36       2.04      10.19
C       7.57       9.89      14.54
C       7.37      10.15      15.88
C       8.44      10.46       0.36
C       9.75      10.46      16.11
C       9.86      10.17      14.76
C       8.18      10.84       1.72
C       8.41      11.66       3.70
C       8.61       0.33       7.12
C       8.15      12.51       5.99
C       8.98      12.26       4.87
C      10.34      12.62       4.99
C      10.72       0.43       6.18
C       5.28       2.86       6.35
C       5.50       2.59       7.68
C       4.41       2.27       8.53
C       3.13       2.28       7.95
C       2.99       2.58       6.60
C       4.70       1.88       9.88
C       4.45       1.06      11.86
C       4.23      12.41      15.29
C       4.70       0.21      14.14
C       3.86       0.48      13.03
C       2.49       0.16      13.16
C       2.11      12.38      14.36
C       9.23       1.12      10.44
C       8.96       0.87      11.77
C       8.64       1.95      12.62
C       8.65       3.25      12.06
C       8.94       3.40      10.71
C       8.26       1.67      13.97
C       7.45       1.91      15.96
C       6.04       2.24       3.04
C       6.57       1.67       1.89
C       6.85       2.50       0.78
C       6.56       3.88       0.90
C       6.05       4.35       2.10
C       3.61      11.61       2.26
C       3.89      11.83       3.59
C       4.22      10.74       4.43
C       4.20       9.45       3.85
C       3.89       9.33       2.50
C       4.60      11.02       5.78
C       5.39      10.78       7.78
C       6.75      10.49      11.22
C       6.23      11.04      10.07
C       5.97      10.20       8.95
C       6.29       8.83       9.09
C       6.80       8.37      10.29
N      10.40       3.55       6.50
N      12.24       4.46       1.81
N      12.08       4.98       0.56
N       9.22       7.01      13.19
N       2.43       9.24      14.63
N       0.54       8.31       9.96
N       0.69       7.81       8.70
N       3.59       5.74       5.00
N       9.91       8.71      10.56
N      10.81       6.88       5.87
N      11.32       7.04       4.61
N       0.71       9.91       0.93
N       2.89       4.02       2.39
N       2.00       5.86      14.04
N       1.48       5.71      12.79
N      12.09       2.83       9.12
N       8.81       9.89      13.96
N       7.00      10.79       2.31
N       7.14      11.30       3.57
N       9.92       0.67       7.25
N       4.04       2.86       5.78
N       5.88       1.90      10.46
N       5.73       1.38      11.72
N       2.90      12.11      15.43
N       9.22       2.36       9.88
N       8.31       0.49      14.56
N       7.80       0.64      15.82
N       5.77       3.57       3.17
N       3.60      10.38       1.69
N       4.57      12.21       6.37
N       5.07      12.05       7.63
N       7.05       9.17      11.37
O      10.10       5.11       1.60
O       2.68       7.70       9.71
O      11.37       9.04       5.61
O       1.39       3.72      13.80
O       9.14      11.39       2.55
O       3.72       1.36      10.72
O       7.72       2.64      14.80
O       5.11      10.05       6.63
