120

Cd       5.50       8.89      13.67
Cd       1.53       6.41      10.77
Cd       2.45       1.31       2.62
Cd       6.42       3.79       5.52
H       6.84       1.28       1.30
H       0.63       0.88      14.83
H       7.53      -1.12      13.74
H       3.43       6.07      13.48
H       5.00      12.10       0.61
H       2.02       4.29      14.70
H       2.00       8.48       0.18
H       2.97       2.19      15.49
H       4.27       3.13      14.79
H       2.86       3.82       6.85
H       4.61       0.07       9.61
H       3.56       2.07      10.70
H       7.40       9.23      10.96
H       1.03       7.36       7.54
H       5.99      11.01       9.74
H       5.97      10.97       7.96
H       6.94      -1.24       8.95
H       0.30      -2.18       9.65
H       1.11       8.92      15.00
H       7.31       9.32       1.46
H       0.42      11.32       2.56
H       4.52       4.13       2.81
H       2.95      -1.90      15.68
H       5.93       5.91       1.59
H       5.95       1.72      16.11
H       4.98       8.01       0.81
H       3.67       7.07       1.51
H       5.09       6.38       9.44
H       3.34      10.13       6.68
H       4.39       8.13       5.59
H       0.54       0.97       5.33
H       6.92       2.84       8.76
H       1.95      -0.81       6.56
H       1.98      -0.77       8.33
H       1.01      11.44       7.34
H       7.65      12.38       6.64
C       7.11      -2.11      15.60
C       7.22       2.11       0.70
C       7.79       3.22       1.33
C       0.30       4.27       0.53
C       0.24       0.06      15.43
C       7.61      -1.05      14.82
C       6.48      -3.31      14.97
C       7.80       3.27       2.83
C       3.72       6.29      14.50
C       4.49       7.23      16.27
C       2.65       4.30      15.60
C       3.58       3.09      15.64
C       3.13       3.05       8.84
C       3.24       2.99       7.44
C       3.81       1.88       6.82
C       4.28       0.83       7.62
C       4.21       0.89       9.01
C       3.63       2.00       9.62
C       2.50       4.26       9.47
C       3.83       1.83       5.31
C       7.70       9.00       9.94
C       0.52       8.07       8.17
C       6.63      11.00       8.84
C       7.56      -2.14       8.80
C       0.84      12.31       0.69
C       0.73       8.09      15.59
C       0.16       6.98      14.96
C       7.64       5.93      15.77
C       7.71      10.14       0.87
C       0.34      11.25       1.47
C       1.47      13.51       1.32
C       0.14       6.93      13.46
C       4.23       3.91       1.80
C       3.46       2.97       0.03
C       5.29       5.90       0.69
C       4.37       7.11       0.65
C       4.82       7.14       7.46
C       4.71       7.21       8.85
C       4.14       8.32       9.48
C       3.67       9.37       8.67
C       3.73       9.31       7.28
C       4.32       8.20       6.67
C       5.44       5.94       6.82
C       4.12       8.37      10.98
C       0.25       1.19       6.35
C       7.43       2.13       8.12
C       1.32      -0.80       7.45
C       0.39      12.34       7.49
Br       1.03       5.84       1.38
Br       5.01      -0.74       6.77
Br       6.91       4.36      14.91
Br       2.94      10.94       9.53
N       4.43       7.36      14.90
N       3.86      10.30       0.43
N       3.37       5.57      15.58
N       0.45       7.94       9.54
N       7.84       9.15       7.72
N       7.35       9.73       8.87
N       3.52       2.84       1.39
N       4.09      -0.11      15.87
N       4.57       4.63       0.72
N       7.50       2.26       6.76
N       0.11       1.05       8.57
N       0.60       0.47       7.43
O       5.96      10.15      15.71
O       6.50      -3.40      13.69
O       0.64       2.52       3.48
O       6.96       4.06       3.36
O       1.98       5.15       8.73
O       2.53       4.34      10.75
O       4.62       2.58       4.66
O       2.98       1.04       4.79
O       1.99       0.05       0.58
O       1.45      13.59       2.60
O       7.30       7.68      12.81
O       0.99       6.13      12.93
O       5.96       5.05       7.56
O       5.42       5.86       5.54
O       3.33       7.62      11.63
O       4.97       9.16      11.51
