22

O       4.53       1.13      16.89
O       3.79      -0.65      17.99
C      -0.06       4.56      23.57
C       0.72       3.64      22.64
C       0.85       2.26      22.95
C       1.22       4.12      21.46
C       1.85       3.25      20.52
C       1.45       1.41      22.07
C       3.87       0.56      17.78
C       3.09       1.48      18.72
C       2.96       2.86      18.41
C       2.58       1.01      19.89
C       1.96       1.87      20.84
C       2.36       3.71      19.28
H       0.52       1.93      23.75
H       1.16       5.02      21.27
H       1.53       0.51      22.29
H       3.29       3.19      17.60
H       2.65       0.10      20.09
H       2.28       4.61      19.06
O      -0.72       3.99      24.47
O       0.02       5.78      23.37
