22

O       7.03      -0.50      16.98
O       6.02      -2.44      17.39
C      11.40      -4.08      23.77
C      10.44      -3.79      22.63
C       9.53      -4.79      22.19
C      10.45      -2.57      21.98
C       9.60      -2.32      20.90
C       8.69      -4.57      21.15
C       6.91      -1.57      17.59
C       7.87      -1.86      18.72
C       8.78      -0.86      19.16
C       7.86      -3.08      19.37
C       8.71      -3.33      20.46
C       9.62      -1.08      20.21
H       9.51      -5.61      22.63
H      11.04      -1.91      22.27
H       8.10      -5.24      20.88
H       8.80      -0.04      18.73
H       7.27      -3.74      19.08
H      10.21      -0.41      20.47
O      11.28      -5.15      24.37
O      12.29      -3.21      23.96
