22

C      -2.45       7.57       7.25
C      -3.01       8.40       8.38
C      -2.31       9.57       8.82
C      -4.17       8.04       9.03
C      -4.65       8.79      10.12
C      -2.76      10.31       9.87
C      -6.15      11.15      13.43
C      -5.59      10.32      12.29
C      -6.29       9.15      11.85
C      -4.44      10.68      11.65
C      -3.95       9.93      10.56
C      -5.84       8.41      10.81
H      -1.53       9.83       8.39
H      -4.64       7.29       8.74
H      -2.30      11.06      10.13
H      -7.07       8.89      12.29
H      -3.97      11.43      11.93
H      -6.30       7.66      10.54
O      -1.46       7.99       6.64
O      -3.03       6.47       7.06
O      -7.14      10.73      14.03
O      -5.57      12.25      13.62
