22

O      -2.07       3.20      16.19
O      -4.05       2.28      16.06
C      -4.38       2.45      24.61
C      -4.35       2.53      23.12
C      -5.57       2.39      22.40
C      -5.55       2.38      21.04
C      -3.17       2.66      22.46
C      -4.33       2.49      20.32
C      -3.07       2.67      16.74
C      -3.09       2.59      18.24
C      -1.88       2.74      18.96
C      -1.90       2.74      20.32
C      -4.28       2.46      18.89
C      -3.12       2.63      21.03
H      -6.37       2.29      22.85
H      -6.35       2.31      20.57
H      -2.38       2.78      22.95
H      -1.08       2.83      18.50
H      -1.10       2.82      20.78
H      -5.06       2.34      18.41
O      -5.38       1.92      25.17
O      -3.40       2.84      25.29
