285

C       6.32      27.38       1.00
C       6.73      28.43       0.14
C      -5.08       5.51      32.11
C      -5.58       4.33      31.52
C      -5.99       3.28      32.37
C       5.82      26.20       0.41
C      -5.64       4.16      30.15
C      -6.16       5.06      29.30
C      -6.20       4.87      27.93
C      -7.00       3.84      27.36
C      -7.06       3.67      25.96
C      -6.29       4.52      25.13
C      -5.52       5.57      25.67
C      -5.48       5.73      27.08
C      -4.83       6.41      24.81
C      -4.97       7.74      24.81
C      -4.44       8.57      23.84
C      -3.71       9.73      24.20
C      -4.72       8.35      22.47
C      -4.29       9.27      21.49
C      -3.59      10.45      21.85
C      -3.29      10.65      23.22
C      -7.85       2.66      25.42
C      -8.76       2.89      24.46
C      -9.47       1.89      23.82
C     -10.52       1.19      24.47
C      -9.22       1.64      22.46
C     -10.00       0.72      21.75
C     -11.06       0.02      22.38
C     -11.31       0.28      23.75
C      30.08      -0.81      21.57
C      -3.30      11.43      20.76
C       6.42      27.58       2.47
C      13.78      20.69       9.77
C      13.84      19.29       9.97
C      15.03      18.58       9.77
C      16.22      19.26       9.39
C      16.16      20.65       9.19
C      14.96      21.36       9.39
C      17.41      18.58       9.16
C      17.93      17.67      10.00
C      19.12      17.00       9.75
C      20.35      17.70       9.69
C      21.56      17.02       9.45
C      21.52      15.62       9.25
C      20.31      14.90       9.33
C      19.11      15.60       9.58
C      20.34      13.52       9.17
C      19.84      12.66      10.08
C      20.03      11.29      10.03
C      18.94      10.41      10.19
C      21.33      10.74       9.95
C      21.53       9.35      10.03
C      20.45       8.46      10.22
C      19.14       9.01      10.27
C      22.76      17.71       9.41
C      23.83      17.37      10.15
C      25.07      17.97      10.03
C      25.31      19.27      10.53
C      26.14      17.22       9.50
C      27.44      17.76       9.48
C      27.70      19.05      10.00
C      26.62      19.80      10.52
C      29.10      19.53      10.13
C      20.76       7.02      10.43
C      12.48      21.39      10.00
C       2.74      21.21       9.44
C       1.38      21.24       9.06
C       0.36      20.87       9.96
C       0.68      20.44      11.27
C       2.04      20.41      11.65
C       3.05      20.79      10.76
C      -0.30      20.09      12.18
C      -1.32      19.25      11.91
C      -2.29      18.92      12.85
C      -1.96      18.20      14.01
C      -2.96      17.84      14.95
C      -4.29      18.25      14.71
C      -4.65      18.96      13.54
C      -3.63      19.29      12.61
C      -5.98      19.29      13.34
C      -6.66      18.94      12.23
C      -8.03      19.10      12.10
C      -8.57      19.70      10.94
C      -8.92      18.55      13.05
C     -10.31      18.59      12.84
C     -10.86      19.16      11.66
C      -9.97      19.73      10.73
C      -2.62      17.12      16.09
C      -3.25      15.98      16.44
C      -3.02      15.32      17.63
C      -1.84      14.57      17.83
C      -4.04      15.28      18.60
C      -3.88      14.51      19.77
C      -2.71      13.75      19.98
C      -1.69      13.79      19.00
C      -2.65      12.80      21.13
C      29.74      19.04      11.47
C       3.77      21.62       8.45
C      11.25      31.45      10.02
C      12.14      31.77      11.07
C      23.76      -7.42      11.77
C      22.77      -6.47      11.42
C      21.87      -6.79      10.38
C      10.25      32.39       9.68
C      22.62      -5.28      12.11
C      23.63      -4.44      12.39
C      23.46      -3.25      13.08
C      22.70      -2.20      12.53
C      22.54      -0.98      13.23
C      23.15      -0.84      14.50
C      23.94      -1.87      15.06
C      24.09      -3.08      14.33
C      24.55      -1.67      16.29
C      25.88      -1.80      16.48
C      26.52      -1.41      17.64
C      27.43      -2.29      18.28
C      26.39      -0.10      18.14
C      27.16       0.33      19.24
C      28.09      -0.52      19.86
C      28.20      -1.85      19.38
C      21.79       0.06      12.69
C      22.27       1.31      12.55
C      21.50       2.37      12.12
C      21.13       2.52      10.77
C      21.19       3.40      13.04
C      20.52       4.56      12.60
C      20.16       4.72      11.25
C      20.47       3.69      10.33
C      19.62       6.03      10.78
C      28.95       0.06      20.94
C      11.41      30.14       9.32
C       8.27      25.23       6.10
C       9.26      24.53       5.40
C      10.18      24.03       6.31
C       9.77      24.39       7.60
C      10.52      24.01       8.72
C      11.71      23.25       8.55
C      12.12      22.90       7.24
C      11.36      23.28       6.12
C       9.21      24.44       3.99
C       8.14      25.05       3.31
C       7.13      25.77       4.01
C       7.20      25.85       5.42
C       7.41      24.60       8.35
C       6.95      25.50       9.31
C       7.69      26.67       9.22
C       8.63      26.52       8.19
C       7.61      27.87       9.94
C       8.50      28.92       9.62
C       9.47      28.78       8.60
C       9.52      27.56       7.87
C       6.83      23.32       8.22
C       5.77      22.94       9.08
C       5.33      23.86      10.07
C       5.91      25.14      10.19
C       8.52      25.18       7.56
H       7.10      29.30       0.53
H      -4.75       6.29      31.52
H       5.51      25.41       0.99
H      -6.35       2.40      31.98
H      -4.91       6.48      27.48
H      -7.54       3.23      27.98
H      -6.32       4.39      24.12
H     -10.74       1.39      25.45
H      -3.51       9.93      25.18
H      -2.78      11.48      23.53
H      -4.55       9.10      20.52
H      -5.27       7.55      22.17
H     -12.09      -0.18      24.22
H      -9.82       0.59      20.75
H      -8.48       2.15      21.96
H      -5.54       8.17      25.50
H      -4.29       5.98      24.09
H      -5.31       3.30      29.78
H      -6.50       5.93      29.65
H      -8.89       3.82      24.12
H      -7.70       1.73      25.75
H      29.64      -1.60      22.18
H      30.66      -1.30      20.78
H      -4.25      11.64      20.27
H      -2.65      10.94      20.03
H       5.75      28.40       2.74
H       7.44      27.92       2.71
H      13.00      18.77      10.24
H      15.03      17.56       9.89
H      14.97      22.37       9.24
H      17.00      21.17       8.91
H      18.22      15.09       9.62
H      20.36      18.72       9.84
H      22.40      15.11       9.06
H      24.55      19.81      10.96
H      17.98      10.77      10.27
H      18.32       8.42      10.40
H      22.49       9.00      10.01
H      22.15      11.35       9.87
H      26.78      20.72      10.94
H      28.21      17.18       9.14
H      26.00      16.27       9.16
H      19.37      13.02      10.88
H      20.85      13.15       8.40
H      17.91      18.81       8.33
H      17.44      17.43      10.83
H      23.77      16.58      10.76
H      22.83      18.48       8.78
H      29.14      20.62      10.09
H      29.68      19.15       9.28
H      21.49       6.98      11.25
H      21.27       6.65       9.53
H      12.22      21.27      11.06
H      11.70      20.87       9.43
H       1.12      21.55       8.12
H      -0.61      20.93       9.65
H       4.02      20.74      11.08
H       2.31      20.10      12.60
H      -3.88      19.81      11.77
H      -0.99      17.91      14.17
H      -5.02      18.01      15.40
H      -1.11      14.54      17.12
H      -7.96      20.08      10.22
H     -10.31      20.16       9.87
H     -10.92      18.15      13.53
H      -8.56      18.08      13.88
H      -0.85      13.21      19.10
H      -4.65      14.47      20.44
H      -4.91      15.80      18.46
H      -6.18      18.48      11.49
H      -6.47      19.71      14.10
H      -0.22      20.46      13.10
H      -1.41      18.87      11.00
H      -3.99      15.64      15.86
H      -1.90      17.48      16.67
H      -1.61      12.64      21.43
H      -3.17      13.25      21.98
H      29.49      17.97      11.57
H      29.24      19.57      12.28
H       3.73      20.90       7.62
H       3.49      22.59       8.03
H      12.87      31.11      11.34
H      24.41      -7.23      12.53
H       9.58      32.21       8.93
H      21.13      -6.13      10.11
H      24.65      -3.84      14.73
H      22.26      -2.31      11.61
H      23.03       0.04      15.03
H      21.39       1.81      10.08
H      27.57      -3.24      17.93
H      28.85      -2.51      19.80
H      27.06       1.31      19.54
H      25.77       0.58      17.68
H      20.26       3.79       9.34
H      20.35       5.31      13.28
H      21.47       3.33      14.02
H      26.45      -2.13      15.73
H      23.99      -1.29      17.02
H      21.70      -5.02      12.39
H      24.56      -4.68      12.12
H      23.20       1.51      12.85
H      20.86      -0.15      12.40
H      18.98       5.88       9.90
H      18.98       6.45      11.57
H      29.42       0.95      20.51
H      28.30       0.39      21.75
H      12.38      30.16       8.82
H      11.45      29.35      10.07
H       4.57      23.59      10.70
H       5.57      25.79      10.90
H       6.92      27.99      10.69
H       8.44      29.80      10.15
H      10.21      27.43       7.13
H       7.17      22.68       7.50
H      10.21      24.27       9.66
H      12.98      22.36       7.10
H      11.66      23.02       5.17
H       6.49      26.35       5.94
H       9.92      23.93       3.48
H       8.10      24.98       2.29
H      10.75      29.77       7.37
H       5.26      26.56       3.88
H      12.31      23.41      10.49
H       5.76      20.99       8.50
N      10.34      29.85       8.31
N       6.07      26.37       3.28
N      12.50      22.84       9.66
N       5.17      21.66       8.99
