70

C      27.84      21.42      14.74
C      24.43      24.50      24.75
C      30.53      24.13      23.50
C      28.12      23.83      19.95
C      27.21      19.37      15.86
N      27.05      24.24      22.13
H      32.17      23.89      25.82
H      31.88      27.80      24.01
H      22.71      25.79      22.11
H      23.06      25.69      26.68
H      34.17      24.64      27.09
H      26.46      23.79      24.67
O      35.77      28.28      26.83
H      20.77      25.20      23.06
O      27.76      18.01      13.43
H      20.96      26.10      27.94
O      35.77      26.31      27.97
H      27.48      26.52      23.44
H      25.31      22.40      21.24
H      26.77      19.54      17.96
H      29.30      22.78      22.35
H      24.85      25.30      20.98
H      27.87      23.19      15.94
O      28.07      19.93      12.35
H      33.89      28.52      25.25
H      28.97      23.38      18.03
H      29.56      27.21      24.58
H      25.41      21.21      19.08
H      28.13      21.96      13.84
H      24.30      24.22      25.79
H      31.38      23.46      23.52
H      28.89      24.55      20.21
H      27.04      18.29      15.82
H      18.70      25.68      24.32
O      18.49      26.18      28.26
O      17.32      26.25      26.35
C      31.87      25.80      24.83
C      34.16      26.63      26.26
C      22.08      25.38      24.77
C      32.55      24.90      25.68
C      30.63      25.38      24.13
C      27.80      19.28      13.43
C      32.37      27.10      24.69
C      18.43      26.13      26.97
C      27.31      21.46      17.11
C      23.34      25.07      24.06
C      28.25      24.61      22.80
C      23.52      25.33      22.68
C      22.11      25.65      26.16
C      33.67      25.32      26.39
C      35.32      27.10      27.08
C      25.63      24.23      24.12
C      27.20      22.19      18.39
C      27.09      23.57      20.88
C      19.66      25.67      24.83
C      20.83      25.41      24.12
C      20.93      25.89      26.87
C      28.33      25.85      23.45
C      26.12      22.61      20.54
C      27.05      20.07      17.05
C      27.61      20.03      14.69
C      29.36      23.75      22.84
C      25.81      24.51      22.75
C      24.73      25.06      22.04
C      27.70      22.12      15.93
C      19.69      25.90      26.21
C      33.51      27.51      25.38
C      28.16      23.16      18.73
C      29.51      26.23      24.09
C      26.18      21.94      19.32
