456

C       1.03      12.77      42.81
C       0.86      14.16      42.81
C      15.82      14.70      42.81
C      14.70      13.86      21.26
C      14.85      12.47      21.26
C      16.15      11.91      42.81
C       1.03      20.36      42.81
C       0.85      18.95      42.81
C      15.80      18.42      42.81
C      14.70      19.26      21.26
C      14.85      20.66      21.26
C      16.15      21.22      42.81
C       1.03      29.88      10.48
C       0.85      31.29      10.48
C      15.80      31.82      10.48
C      14.70      30.96      10.48
C      14.86      29.57      10.48
C      16.16      29.02      10.48
C       1.03       3.27      10.48
C       0.87       1.88      10.48
C      15.83       1.33      10.48
C      14.70       2.15      10.48
C      14.85       3.55      10.48
C      16.15       4.12      10.48
C       7.88       8.93       0.85
C       7.89       7.61       0.40
C       7.88       7.61      20.56
C       7.88       8.93      20.11
C       7.89       9.19      18.72
C       7.90       8.13      17.77
C       7.90       6.80      18.28
C       7.90       6.53      19.66
C       7.90       6.53       1.30
C       7.90       6.80       2.69
C       7.90       8.13       3.19
C       7.89       9.19       2.24
C       9.04      10.80      42.81
C       8.65      12.14      42.81
C       7.26      12.18      42.81
C       6.77      10.86      42.81
C       6.37      13.27      42.81
C       4.98      13.01      42.81
C       4.47      11.68      42.81
C       5.39      10.60      42.81
C      10.40      10.44      21.26
C      11.41      11.43      21.26
C      10.99      12.80      21.26
C       9.62      13.16      21.26
C       7.88       9.88      42.81
C       3.10      11.41      42.81
C      12.74      11.00      21.26
C       7.90       8.44       4.57
C       7.90       8.44      16.40
C       7.87      24.21      20.11
C       7.88      25.53      20.56
C       7.89      25.53       0.40
C       7.88      24.21       0.85
C       7.89      23.94       2.24
C       7.90      25.00       3.19
C       7.90      26.34       2.69
C       7.90      26.60       1.30
C       7.90      26.61      19.66
C       7.90      26.34      18.28
C       7.90      25.01      17.77
C       7.89      23.94      18.72
C       9.04      22.34      42.81
C       8.65      21.00      42.81
C       7.26      20.96      42.81
C       6.77      22.28      42.81
C       6.37      19.87      42.81
C       4.98      20.13      42.81
C       4.47      21.46      42.81
C       5.39      22.53      42.81
C      10.40      22.70      42.81
C      11.41      21.70      42.81
C      10.99      20.34      42.81
C       9.62      19.98      42.81
C       7.88      23.26      42.81
C       3.10      21.72      42.81
C      12.74      22.14      42.81
C       7.90      24.69      16.40
C       7.90      24.69       4.57
C       7.88      26.03      11.63
C       7.88      24.71      11.18
C       7.88      24.71       9.79
C       7.88      26.03       9.33
C       7.89      26.29       7.95
C       7.90      25.23       6.99
C       7.90      23.90       7.50
C       7.90      23.63       8.88
C       7.90      23.63      12.08
C       7.90      23.90      13.46
C       7.90      25.23      13.97
C       7.89      26.29      13.02
C       9.04      27.90      10.48
C       8.65      29.24      10.48
C       7.26      29.28      10.48
C       6.77      27.96      10.48
C       6.37      30.37      10.48
C       4.99      30.11      10.48
C       4.47      28.78      10.48
C       5.39      27.70      10.48
C      10.40      27.54      10.48
C      11.41      28.53      10.48
C      10.99      29.90      10.48
C       9.62      30.26      10.48
C       7.88      26.98      10.48
C       3.10      28.51      10.48
C      12.74      28.10      10.48
C       7.90      25.54      15.35
C       7.90      25.54       5.62
C       7.88       7.10       9.33
C       7.88       8.43       9.79
C       7.88       8.43      11.18
C       7.88       7.10      11.63
C       7.89       6.84      13.02
C       7.90       7.90      13.97
C       7.90       9.24      13.46
C       7.90       9.50      12.08
C       7.90       9.50       8.88
C       7.90       9.24       7.50
C       7.90       7.90       6.99
C       7.89       6.84       7.95
C       9.04       5.24      10.48
C       8.65       3.89      10.48
C       7.26       3.85      10.48
C       6.78       5.17      10.48
C       6.37       2.77      10.48
C       4.98       3.02      10.48
C       4.47       4.36      10.48
C       5.39       5.43      10.48
C      10.40       5.59      10.48
C      11.41       4.60      10.48
C      10.99       3.24      10.48
C       9.62       2.87      10.48
C       7.88       6.16      10.48
C       3.10       4.63      10.48
C      12.74       5.03      10.48
C       7.90       7.59       5.62
C       7.90       7.59      15.35
C       1.03      12.78      21.26
C       0.86      14.18      21.26
C      15.81      14.71      21.26
C      14.69      13.88      42.81
C      14.85      12.48      42.81
C      16.15      11.91      21.26
C       1.03      20.37      21.26
C       0.86      18.97      21.26
C      15.82      18.44      21.26
C      14.69      19.28      42.81
C      14.85      20.67      42.81
C      16.15      21.22      21.26
C       1.03      29.87      32.04
C       0.87      31.26      32.04
C      15.83      31.80      32.04
C      14.70      30.98      32.04
C      14.85      29.58      32.04
C      16.15      29.01      32.04
C       1.03       3.26      32.04
C       0.85       1.85      32.04
C      15.80       1.32      32.04
C      14.69       2.17      32.04
C      14.85       3.56      32.04
C      16.15       4.12      32.04
C       7.88       8.93      22.41
C       7.88       7.61      21.96
C       7.88       7.61      42.12
C       7.87       8.93      41.67
C       7.89       9.19      40.28
C       7.90       8.13      39.33
C       7.90       6.80      39.83
C       7.90       6.53      41.22
C       7.90       6.53      22.86
C       7.90       6.80      24.24
C       7.90       8.13      24.75
C       7.89       9.19      23.80
C       9.04      10.80      21.26
C       8.65      12.14      21.26
C       7.26      12.18      21.26
C       6.77      10.86      21.26
C       6.37      13.27      21.26
C       4.98      13.01      21.26
C       4.47      11.68      21.26
C       5.39      10.60      21.26
C      10.40      10.44      42.81
C      11.41      11.44      42.81
C      10.99      12.80      42.81
C       9.62      13.16      42.81
C       7.88       9.88      21.26
C       3.10      11.41      21.26
C      12.74      11.00      42.81
C       7.90       8.44      26.12
C       7.90       8.44      37.95
C       7.87      24.21      41.67
C       7.88      25.53      42.12
C       7.88      25.53      21.96
C       7.88      24.21      22.41
C       7.89      23.94      23.80
C       7.90      25.01      24.75
C       7.90      26.34      24.24
C       7.90      26.61      22.86
C       7.90      26.61      41.22
C       7.90      26.34      39.83
C       7.90      25.01      39.33
C       7.89      23.94      40.28
C       9.04      22.34      21.26
C       8.65      20.99      21.26
C       7.26      20.96      21.26
C       6.77      22.27      21.26
C       6.37      19.87      21.26
C       4.98      20.13      21.26
C       4.47      21.46      21.26
C       5.39      22.53      21.26
C      10.40      22.70      21.26
C      11.41      21.70      21.26
C      10.99      20.34      21.26
C       9.62      19.97      21.26
C       7.88      23.26      21.26
C       3.10      21.73      21.26
C      12.74      22.13      21.26
C       7.90      24.69      37.95
C       7.90      24.69      26.12
C       7.87      26.03      33.19
C       7.88      24.71      32.73
C       7.88      24.71      31.34
C       7.87      26.03      30.89
C       7.89      26.30      29.50
C       7.90      25.23      28.55
C       7.90      23.90      29.06
C       7.90      23.63      30.44
C       7.90      23.63      33.64
C       7.90      23.90      35.02
C       7.90      25.23      35.53
C       7.89      26.30      34.57
C       9.04      27.90      32.04
C       8.65      29.24      32.04
C       7.26      29.28      32.04
C       6.77      27.96      32.04
C       6.37      30.37      32.04
C       4.98      30.11      32.04
C       4.47      28.78      32.04
C       5.39      27.70      32.04
C      10.40      27.54      32.04
C      11.41      28.54      32.04
C      10.99      29.90      32.04
C       9.62      30.26      32.04
C       7.88      26.98      32.04
C       3.10      28.51      32.04
C      12.74      28.10      32.04
C       7.90      25.55      36.90
C       7.90      25.55      27.17
C       7.87       7.11      30.89
C       7.88       8.43      31.34
C       7.88       8.43      32.73
C       7.87       7.11      33.19
C       7.89       6.84      34.57
C       7.90       7.91      35.53
C       7.90       9.24      35.02
C       7.90       9.51      33.64
C       7.90       9.51      30.44
C       7.90       9.24      29.06
C       7.90       7.91      28.55
C       7.89       6.84      29.50
C       9.04       5.24      32.04
C       8.65       3.89      32.04
C       7.26       3.86      32.04
C       6.77       5.17      32.04
C       6.37       2.77      32.04
C       4.98       3.02      32.04
C       4.47       4.36      32.04
C       5.39       5.43      32.04
C      10.40       5.60      32.04
C      11.41       4.60      32.04
C      10.99       3.24      32.04
C       9.62       2.87      32.04
C       7.88       6.16      32.04
C       3.10       4.62      32.04
C      12.74       5.04      32.04
C       7.90       7.59      27.17
C       7.90       7.59      36.90
H      13.76      14.28      21.26
H       0.02      10.90      42.81
H       1.68      14.79      42.81
H      13.77      18.83      21.26
H       0.03      22.24      42.81
H       1.66      18.32      42.81
H      13.76      31.36      10.48
H       0.03      28.00      10.48
H       1.66      31.92      10.48
H      13.77       1.72      10.48
H       0.02       5.14      10.48
H       1.68       1.25      10.48
H      11.67      13.55      21.26
H       9.35      14.15      21.26
H       6.72      14.23      42.81
H       4.36      13.82      42.81
H       5.06       9.63      42.81
H      10.64       9.44      21.26
H       7.89      10.17      18.42
H       7.91       5.99      17.66
H       7.90       5.56      20.00
H       7.89      10.17       2.55
H       7.91       5.56       0.97
H       7.91       5.99       3.31
H      12.95      10.03      21.26
H       2.74      10.48      42.81
H       7.90       9.41       4.78
H       7.90       9.41      16.18
H      11.67      19.59      42.82
H       9.35      18.99      42.81
H       6.72      18.91      42.81
H       4.36      19.32      42.81
H       5.06      23.51      42.81
H      10.64      23.69      42.81
H       7.89      22.96       2.55
H       7.91      27.15       3.31
H       7.91      27.57       0.97
H       7.89      22.96      18.42
H       7.90      27.57      20.00
H       7.91      27.15      17.66
H      12.95      23.11      42.82
H       2.74      22.65      42.81
H       7.90      23.72      16.18
H       7.90      23.72       4.78
H      11.67      30.65      10.48
H       9.35      31.25      10.48
H       6.72      31.33      10.48
H       4.36      30.92      10.48
H       5.06      26.73      10.48
H      10.64      26.54      10.48
H       7.89      27.27       7.64
H       7.91      23.09       6.88
H       7.91      22.66       9.22
H       7.89      27.27      13.32
H       7.90      22.66      11.75
H       7.91      23.09      14.08
H      12.95      27.13      10.48
H       2.74      27.59      10.48
H       7.90      26.51      15.56
H       7.90      26.51       5.41
H      11.67       2.48      10.48
H       9.35       1.89      10.48
H       6.72       1.80      10.48
H       4.36       2.22      10.48
H       5.07       6.40      10.48
H      10.64       6.59      10.48
H       7.89       5.86      13.33
H       7.91      10.05      14.08
H       7.90      10.47      11.75
H       7.89       5.86       7.64
H       7.90      10.47       9.22
H       7.91      10.04       6.88
H      12.95       6.00      10.48
H       2.75       5.56      10.48
H       7.90       6.62       5.41
H       7.90       6.62      15.56
H      13.77      14.31      42.81
H       0.03      10.90      21.26
H       1.66      14.81      21.26
H      13.75      18.87      42.81
H       0.02      22.24      21.26
H       1.67      18.34      21.26
H      13.77      31.41      32.04
H       0.02      28.00      32.04
H       1.68      31.89      32.04
H      13.76       1.77      32.04
H       0.03       5.14      32.04
H       1.66       1.22      32.04
H      11.67      13.55      42.81
H       9.35      14.15      42.81
H       6.72      14.23      21.26
H       4.36      13.82      21.26
H       5.06       9.63      21.26
H      10.64       9.44      42.81
H       7.89      10.17      39.97
H       7.91       5.99      39.21
H       7.90       5.57      41.55
H       7.89      10.17      24.10
H       7.90       5.56      22.52
H       7.91       5.99      24.86
H      12.95      10.03      42.81
H       2.74      10.48      21.26
H       7.90       9.41      26.34
H       7.90       9.41      37.74
H      11.67      19.59      21.26
H       9.35      18.99      21.26
H       6.72      18.91      21.26
H       4.36      19.32      21.26
H       5.07      23.50      21.26
H      10.64      23.69      21.26
H       7.89      22.96      24.10
H       7.91      27.15      24.86
H       7.90      27.57      22.52
H       7.89      22.97      39.97
H       7.90      27.57      41.55
H       7.91      27.15      39.21
H      12.95      23.11      21.26
H       2.74      22.66      21.26
H       7.90      23.73      37.74
H       7.90      23.73      26.34
H      11.67      30.65      32.04
H       9.35      31.25      32.04
H       6.72      31.33      32.04
H       4.36      30.92      32.04
H       5.06      26.73      32.04
H      10.64      26.55      32.04
H       7.89      27.27      29.19
H       7.91      23.09      28.44
H       7.90      22.67      30.77
H       7.89      27.27      34.88
H       7.90      22.67      33.30
H       7.91      23.09      35.64
H      12.95      27.13      32.04
H       2.74      27.58      32.04
H       7.90      26.51      37.11
H       7.90      26.51      26.96
H      11.67       2.48      32.04
H       9.35       1.89      32.04
H       6.72       1.80      32.04
H       4.36       2.22      32.04
H       5.06       6.40      32.04
H      10.64       6.59      32.04
H       7.89       5.86      34.88
H       7.91      10.05      35.64
H       7.90      10.47      33.30
H       7.89       5.86      29.20
H       7.90      10.47      30.77
H       7.91      10.05      28.44
H      12.95       6.01      32.04
H       2.74       5.55      32.04
H       7.90       6.62      26.96
H       7.90       6.62      37.11
N       2.28      12.39      42.81
N      15.50      15.96      21.26
N      13.74      11.79      21.26
N       2.28      20.74      42.81
N      15.65      17.16      21.26
N      13.74      21.34      21.26
N       2.29      29.50      10.48
N      15.43      33.07      10.48
N      13.74      28.89      10.48
N       2.29       3.64      10.48
N      15.74       0.04      10.48
N      13.74       4.24      10.48
N       2.29      12.40      21.26
N      15.73      15.99      42.81
N      13.74      11.79      42.81
N       2.29      20.74      21.26
N      15.44      17.17      42.81
N      13.74      21.35      42.81
N       2.28      29.49      32.04
N      15.68      33.08      32.04
N      13.74      28.90      32.04
N       2.28       3.64      32.04
N      15.47       0.07      32.04
N      13.74       4.25      32.04
