18

Cd       8.04       6.96       8.31
C       7.98       1.11      10.38
Cd       9.85       3.65       9.74
O       9.59       5.78      10.43
O      11.79       2.53      10.23
C       6.40       8.31       6.59
C       9.26       4.32       6.94
C      10.78       8.59       9.40
C       9.91       9.51       7.67
O      10.24       3.72       7.49
O       8.30       4.83       7.63
N       9.78       8.44       8.47
C       8.62       6.29      11.12
N       8.10       2.17       9.59
O       6.10       8.09       7.82
C      11.48       2.30      11.46
C       7.11       2.02       8.65
O       7.65       6.90      10.56
