36

H       1.16       4.11       8.70
H      -0.27       2.27       9.53
H      -2.60       2.73      10.22
H      -2.08       6.89       9.21
H       0.25       6.42       8.53
H      -1.75       6.79      13.11
H      -3.12       4.82      12.23
H      -7.07       6.05       9.53
H      -8.16       3.97      12.41
H      -0.91       4.45      13.12
H      -9.83       8.64      12.42
H      -7.51       8.17      11.70
C      -9.82       5.27      12.82
C      -0.73       6.58      12.82
C      -5.00       5.42       8.02
C      -9.46       7.63      12.43
C      -8.14       7.36      12.04
C      -7.66       6.04      12.05
C       0.14       4.32       8.99
C      -3.98       5.09      11.64
C      -5.19       5.43      13.73
C      -0.67       3.28       9.45
C      -1.99       3.53       9.82
C      -2.52       4.83       9.71
C      -1.70       5.87       9.26
C      -0.38       5.61       8.89
C      -5.19       5.41      12.27
C      -6.32       5.74      11.49
C      -6.20       5.77      10.11
C      -5.00       5.45       9.48
C      -3.86       5.12      10.26
C      -8.51       4.99      12.43
O      -6.14       5.41       7.40
O      -3.87       5.41       7.40
O      -6.32       5.44      14.35
O      -4.05       5.44      14.35
