14

N       7.98       5.39       5.43
N      10.81       5.39       5.43
H       8.17       7.46       4.99
H      10.62       7.46       4.98
H      10.56       3.06       4.02
H      10.59       2.16       5.67
H       8.17       3.02       4.06
H       8.21       2.16       5.73
C       8.69       4.27       5.76
C       8.68       6.54       5.21
C      10.10       6.54       5.21
C      10.10       4.27       5.76
C      10.14       2.96       5.05
C       8.63       2.96       5.07
