23

O       3.47       7.34       5.44
O       5.74       7.34       5.44
O       3.44      14.22       5.44
O       5.71      14.22       5.44
H       4.64      12.83       8.23
H       5.76      11.50       8.67
H       6.35      12.84       7.64
H       5.38       9.51       7.47
H       2.30      11.92       3.77
H       3.52      11.97       2.35
H       2.34       9.53       3.75
H       3.59       9.58       2.34
C       4.61       7.95       5.44
C       4.38      10.09       4.28
C       4.63       9.38       5.45
C       5.08      10.07       6.59
C       5.06      11.47       6.61
C       4.60      12.17       5.47
C       4.36      11.46       4.29
C       3.23      11.52       3.32
C       4.57      13.60       5.44
C       3.26      10.00       3.31
C       5.48      12.20       7.86
