15

C       6.95       5.12       7.58
C       5.63       4.43       7.46
H       6.11       7.10       7.40
N       9.35       4.99       7.75
H      10.40       6.79       7.72
C       8.27       7.14       7.58
C       9.41       6.34       7.69
C       8.36       8.63       7.46
O       9.52       9.16       7.46
H       8.14       3.31       7.72
O       7.24       9.24       7.33
C       7.02       6.51       7.52
O       5.62       3.16       7.45
O       4.61       5.20       7.33
C       8.14       4.39       7.69
