15

N      -5.38       3.59       9.94
O      -2.94       6.27      12.00
O      -3.26       5.10      13.93
C      -5.88       2.54      10.62
C      -5.64       2.33      11.98
C      -6.16       1.12      12.69
O      -6.82       0.27      12.01
O      -5.85       1.03      13.93
C      -4.62       4.49      10.62
H      -6.47       1.83      10.04
C      -4.34       4.36      11.98
C      -3.45       5.33      12.69
C      -4.86       3.26      12.67
H      -4.22       5.31      10.03
H      -4.64       3.12      13.72
