20

Cu       3.40       2.50       7.14
Cu       1.35       0.98       7.62
C       5.46       4.67       7.82
N      -0.41      -0.30       7.91
N       5.16       3.78       6.86
O       2.20       3.38       5.79
O       0.37       2.09       6.22
O       3.93       1.17       5.76
O       2.61       3.65       8.58
O       2.55       0.10       8.97
O       4.38       1.39       8.54
O       0.82       2.31       9.00
O       2.14      -0.17       6.18
C       0.99       3.02       5.60
C       3.76       0.46       9.16
C       3.22       0.13       5.57
C      -1.33      -0.03       8.84
C       1.53       3.35       9.19
C       6.08       3.51       5.92
C      -0.71      -1.19       6.94
