69

H       1.21       5.78       2.52
H       2.27       3.85       3.67
H       5.31       3.73       0.61
H       4.24       5.69      -0.50
H       3.27       1.41       3.64
H       3.76       2.74       4.73
H       5.15      -0.21       2.85
H       6.54       0.88       2.85
H       9.04      -4.51       4.23
H       7.62      -2.71       5.35
H       9.22       5.78       6.60
H       8.17       3.83       5.50
H       5.14       3.74       8.57
H       6.20       5.72       9.64
H       7.18       1.40       5.50
H       6.67       2.75       4.45
H       5.29      -0.21       6.32
H       3.89       0.89       6.30
H       1.40      -4.50       4.90
H       2.83      -2.70       3.79
C       2.19       7.18       0.38
C       2.69       5.90       0.97
C       2.12       5.34       2.12
C       2.72       4.25       2.76
C       3.90       3.71       2.23
C       4.43       4.20       1.03
C       3.83       5.29       0.41
C       4.12       2.03       3.97
C       5.88       0.29       3.50
C       7.22      -1.69       3.42
C       6.56      -2.03       1.94
C       7.63      -2.93       1.46
C       8.73      -3.64       2.19
C       8.58      -3.68       3.69
C       7.82      -2.76       4.28
C       9.37      -4.85       1.54
C       2.56      -1.45       7.04
C       1.54      -2.26       7.74
C       8.26       7.19       8.75
C       7.75       5.91       8.17
C       8.31       5.34       7.02
C       7.72       4.24       6.40
C       6.54       3.70       6.94
C       6.02       4.21       8.13
C       6.61       5.30       8.73
C       6.33       2.03       5.20
C       4.56       0.29       5.66
C       3.22      -1.69       5.73
C       3.87      -2.02       7.21
C       2.79      -2.92       7.69
C       1.70      -3.63       6.94
C       1.86      -3.68       5.44
C       2.63      -2.75       4.86
C       1.07      -4.85       7.58
C       7.86      -1.45       2.10
C       8.88      -2.26       1.39
C       5.22       1.16       4.58
O       2.87       7.79      -0.48
O       1.08       7.67       0.88
O       4.66       2.73       2.84
O       6.64      -0.73       4.19
O       9.29      -5.96       2.16
O       9.97      -4.68       0.42
O       7.58       7.80       9.61
O       9.37       7.67       8.25
O       5.79       2.70       6.35
O       3.80      -0.72       4.96
O       1.19      -5.95       6.96
O       0.46      -4.69       8.69
