10

Zn       4.63       2.54       1.33
P       6.13       3.23      -1.17
H       4.04      -0.53       1.12
O       4.98       3.68      -0.22
P       5.75       0.32       2.43
C       2.03       2.42       0.28
O       4.48       0.37       1.39
O       5.93       1.87       2.60
C       1.65       3.09       2.33
N       2.65       2.84       1.40
