864

H       7.27      13.94      11.71
H       1.50      13.82      11.94
H       4.63      10.28      15.22
H       7.24      25.70      28.06
H       1.46      25.84      27.77
H       4.63      29.27      24.43
H      25.11      27.95      13.93
H      19.34      27.73      13.80
H      22.48      24.43      10.28
H      25.11      11.59      25.71
H      19.33      11.89      25.83
H      22.50      15.21      29.28
H      13.08      25.61      11.58
H      18.87      25.73      11.77
H      15.75      29.19      15.14
H      13.11      14.05      28.09
H      18.89      13.93      27.83
H      15.75      10.52      24.44
H      30.96      11.58      14.06
H       1.03      11.80      13.96
H      33.63      15.21      10.53
H      30.94      28.09      25.61
H       1.02      27.85      25.74
H      33.59      24.50      29.19
H      14.74       8.79      23.25
H      13.50       7.55      21.65
H      11.38      11.24      23.97
H       8.29       3.98      19.61
H      12.49       4.20      20.05
H      12.62       1.81      20.00
H       8.42       1.59      19.54
H       6.96       7.41      18.11
H       8.97      11.17      15.78
H      10.26       9.95      17.38
H       5.68       8.62      16.50
H      11.51       5.99      21.58
H       9.07       5.93      18.15
H      10.17       9.59      19.89
H      10.12       9.97      22.39
H      14.71      30.92      16.36
H      13.46      32.15      17.97
H      11.42      28.36      15.73
H       7.95      35.41      19.82
H      12.16      35.61      19.53
H      12.04      38.00      19.51
H       7.83      37.80      19.82
H       6.90      32.10      21.50
H       8.99      28.46      23.94
H      10.27      29.69      22.33
H       5.64      30.90      23.12
H      11.37      33.64      18.02
H       8.91      33.65      21.43
H      10.24      30.01      19.82
H      10.14      29.61      17.32
H      32.61      16.42       8.80
H      31.36      18.01       7.55
H      29.25      15.70      11.27
H      26.13      20.04       3.99
H      30.33      19.59       4.20
H      30.46      19.64       1.82
H      26.27      20.11       1.60
H      24.81      21.54       7.42
H      26.82      23.88      11.17
H      28.11      22.28       9.95
H      23.53      23.15       8.62
H      29.37      18.07       6.00
H      26.92      21.49       5.94
H      28.03      19.77       9.61
H      27.99      17.28       9.99
H      32.55      23.32      30.93
H      31.30      21.71      32.16
H      29.25      23.92      28.36
H      25.79      19.83      35.42
H      30.01      20.14      35.62
H      29.88      20.16      38.01
H      25.68      19.83      37.81
H      24.76      18.14      32.11
H      26.86      15.71      28.47
H      28.14      17.32      29.70
H      23.51      16.52      30.91
H      29.21      21.64      33.65
H      26.76      18.22      33.66
H      28.10      19.83      30.02
H      27.99      22.33      29.61
H      23.19      30.78      16.69
H      24.53      32.02      18.23
H      26.49      28.31      15.82
H      29.91      35.61      19.94
H      25.69      35.39      19.77
H      25.57      37.78      19.80
H      29.78      38.00      20.00
H      31.38      32.18      21.35
H      29.59      28.32      23.67
H      28.19      29.54      22.19
H      32.77      30.97      22.88
H      26.51      33.58      18.23
H      29.28      33.63      21.39
H      28.02      29.97      19.75
H      27.84      29.56      17.32
H      23.23       8.71      23.00
H      24.60       7.48      21.48
H      26.45      11.32      23.78
H      30.26       4.20      19.93
H      26.04       4.02      20.00
H      26.14       1.63      20.01
H      30.36       1.82      19.92
H      31.48       7.56      18.39
H      29.56      11.28      15.94
H      28.19      10.03      17.43
H      32.84       8.79      16.86
H      26.68       6.00      21.50
H      29.47       6.02      18.36
H      27.99       9.64      19.87
H      27.83      10.08      22.30
H       5.37      23.00      30.94
H       6.74      21.47      32.17
H       8.58      23.77      28.32
H      12.40      19.93      35.44
H       8.18      19.99      35.63
H       8.29      20.01      38.02
H      12.50      19.93      37.83
H      13.62      18.40      32.09
H      11.72      15.94      28.37
H      10.34      17.43      29.61
H      14.99      16.87      30.86
H       8.82      21.49      33.65
H      11.62      18.36      33.63
H      10.13      19.87      30.01
H       9.97      22.29      29.57
H       5.34      16.68       8.87
H       6.68      18.22       7.63
H       8.65      15.82      11.35
H      12.06      19.95       4.04
H       7.84      19.75       4.26
H       7.72      19.79       1.87
H      11.93      20.01       1.65
H      13.53      21.36       7.48
H      11.72      23.68      11.32
H      10.33      22.20      10.10
H      14.91      22.89       8.69
H       8.67      18.22       6.07
H      11.43      21.39       6.02
H      10.17      19.76       9.68
H       9.99      17.32      10.09
H      15.27      29.94      28.71
H       9.50      29.82      28.94
H      12.63      26.28      32.22
H      15.24       1.60       4.95
H       9.46       1.73       4.66
H      12.63       5.16       1.32
H      33.11       3.84      30.93
H      27.34       3.63      30.80
H      30.48       0.33      27.28
H      33.11      27.59       2.61
H      27.33      27.89       2.72
H      30.50      31.21       6.17
H      21.08       1.50      28.58
H      26.87       1.62      28.77
H      23.75       5.09      32.14
H      21.11      30.05       4.99
H      26.89      29.93       4.72
H      23.75      26.52       1.34
H       3.25      27.58      31.06
H       9.03      27.80      30.96
H       5.91      31.21      27.53
H       3.23       3.98       2.50
H       9.02       3.74       2.64
H       5.88       0.40       6.08
H      22.74      24.79       0.14
H      21.50      23.55      38.65
H      19.38      27.24       0.86
H      16.29      19.98      36.61
H      20.49      20.20      37.05
H      20.62      17.81      37.00
H      16.42      17.59      36.54
H      14.96      23.41      35.11
H      16.97      27.17      32.78
H      18.26      25.95      34.38
H      13.68      24.62      33.50
H      19.51      21.99      38.58
H      17.07      21.93      35.15
H      18.17      25.59      36.89
H      18.12      25.97      39.39
H      22.71       6.81      33.36
H      21.46       8.04      34.97
H      19.42       4.25      32.73
H      15.95      11.31      36.82
H      20.16      11.50      36.53
H      20.04      13.89      36.51
H      15.83      13.69      36.82
H      14.90       7.99      38.50
H      16.99       4.35       0.83
H      18.27       5.58      39.33
H      13.64       6.79       0.01
H      19.37       9.53      35.02
H      16.91       9.54      38.43
H      18.24       5.90      36.82
H      18.14       5.50      34.32
H       4.90      32.42      25.80
H       3.65      34.01      24.55
H       1.54      31.70      28.27
H      34.13      36.04      20.99
H       2.62      35.59      21.20
H       2.75      35.64      18.82
H      34.27      36.11      18.60
H      32.81      37.54      24.42
H      34.82      39.88      28.17
H       0.40      38.28      26.95
H      31.53      39.15      25.62
H       1.65      34.07      23.00
H      34.92      37.49      22.94
H       0.31      35.77      26.61
H       0.27      33.28      26.99
H       4.84      39.32       7.82
H       3.59      37.71       9.06
H       1.54      39.92       5.25
H      33.79      35.83      12.31
H       2.29      36.14      12.52
H       2.17      36.16      14.91
H      33.68      35.83      14.70
H      32.76      34.14       9.01
H      34.86      31.71       5.37
H       0.43      33.32       6.59
H      31.51      32.52       7.80
H       1.50      37.64      10.54
H      34.76      34.22      10.56
H       0.38      35.83       6.91
H       0.27      38.33       6.50
H      31.19       6.67      33.69
H      32.53       7.91      35.23
H      34.49       4.20      32.82
H       2.20      11.50      36.94
H      33.69      11.28      36.77
H      33.57      13.67      36.80
H       2.06      13.89      37.00
H       3.67       8.07      38.35
H       1.88       4.21       0.57
H       0.48       5.43      39.19
H       5.06       6.86      39.88
H      34.51       9.47      35.23
H       1.57       9.52      38.39
H       0.31       5.87      36.75
H       0.13       5.46      34.32
H      31.23      24.71      40.00
H      32.60      23.48      38.48
H      34.45      27.32       0.67
H       2.54      20.20      36.93
H      34.04      20.02      37.00
H      34.14      17.63      37.01
H       2.64      17.82      36.92
H       3.76      23.56      35.39
H       1.85      27.28      32.94
H       0.47      26.03      34.43
H       5.13      24.79      33.86
H      34.68      22.00      38.50
H       1.76      22.02      35.36
H       0.28      25.64      36.87
H       0.12      26.08      39.30
H      13.37      39.00       7.83
H      14.74      37.47       9.06
H      16.58      39.77       5.22
H      20.40      35.93      12.33
H      16.18      35.99      12.52
H      16.29      36.01      14.91
H      20.50      35.93      14.72
H      21.62      34.40       8.98
H      19.72      31.94       5.26
H      18.34      33.43       6.51
H      22.99      32.87       7.75
H      16.82      37.49      10.55
H      19.62      34.36      10.52
H      18.13      35.87       6.90
H      17.97      38.29       6.46
H      13.34      32.68      25.87
H      14.68      34.22      24.63
H      16.65      31.82      28.35
H      20.06      35.95      21.04
H      15.84      35.75      21.26
H      15.72      35.79      18.87
H      19.93      36.01      18.65
H      21.53      37.36      24.48
H      19.72      39.68      28.32
H      18.33      38.20      27.10
H      22.91      38.89      25.69
H      16.67      34.22      23.07
H      19.43      37.39      23.02
H      18.17      35.76      26.68
H      17.99      33.32      27.09
C       3.11      12.93      12.80
C       5.36      13.49      12.28
C       4.90      11.79      13.86
C       5.31      10.86      14.78
C       1.75      13.14      12.61
C       6.33      14.23      11.61
C       3.09      26.70      26.91
C       5.33      26.13      27.46
C       4.89      27.80      25.83
C       5.31      28.71      24.89
C       1.72      26.51      27.09
C       6.29      25.41      28.14
C      20.95      26.87      12.92
C      23.21      27.38      13.49
C      22.74      25.80      11.79
C      23.16      24.87      10.85
C      19.59      27.06      13.12
C      24.17      28.05      14.22
C      20.96      12.75      26.69
C      23.21      12.19      26.14
C      22.76      13.82      27.81
C      23.18      14.75      28.72
C      19.60      12.57      26.50
C      24.16      11.50      25.42
C      17.25      26.60      12.66
C      14.99      26.04      12.15
C      15.47      27.71      13.76
C      15.06      28.64      14.69
C      18.61      26.40      12.46
C      14.02      25.31      11.48
C      17.26      13.07      26.96
C      15.01      13.64      27.48
C      15.47      11.97      25.86
C      15.06      11.06      24.92
C      18.63      13.25      27.15
C      14.05      14.36      28.16
C      35.12      12.69      13.09
C      32.87      12.18      13.65
C      33.34      13.80      11.99
C      32.93      14.74      11.07
C       0.77      12.49      13.28
C      31.90      11.50      14.37
C      35.10      26.98      26.61
C      32.85      27.51      26.04
C      33.31      25.89      27.72
C      32.90      24.96      28.64
C       0.75      27.17      26.42
C      31.89      28.18      25.31
C      10.37       4.32      19.84
C      11.68       8.63      21.86
C       8.74       8.56      17.90
C      11.09       9.72      22.55
C      11.83      10.46      23.49
C      13.18      10.15      23.75
C      13.77       9.06      23.08
C      13.03       8.31      22.14
C      11.62       3.66      19.96
C      11.70       2.26      19.92
C      10.54       1.48      19.77
C       9.29       2.13      19.65
C       9.21       3.54      19.68
C       7.40       8.19      17.61
C       6.64       8.91      16.67
C       7.20      10.02      15.99
C       8.54      10.37      16.26
C       9.30       9.66      17.21
C       9.49       7.86      18.89
C       9.55       6.45      18.90
C      10.30       5.75      19.86
C      10.99       6.49      20.85
C      10.95       7.90      20.88
C      10.20       8.57      19.89
C      10.06      35.28      19.68
C      11.68      31.00      17.81
C       8.72      31.02      21.76
C      11.11      29.89      17.14
C      11.86      29.16      16.20
C      13.19      29.51      15.90
C      13.75      30.63      16.56
C      13.01      31.36      17.49
C      11.24      36.06      19.57
C      11.17      37.46      19.57
C       9.92      38.12      19.67
C       8.75      37.35      19.75
C       8.82      35.94      19.76
C       7.37      31.35      22.02
C       6.62      30.63      22.97
C       7.20      29.55      23.68
C       8.55      29.23      23.43
C       9.30      29.95      22.48
C       9.46      31.72      20.77
C       9.43      33.14      20.71
C      10.13      33.86      19.72
C      10.89      33.13      18.77
C      10.94      31.72      18.79
C      10.22      31.03      19.80
C      28.22      19.81       4.33
C      29.55      17.80       8.65
C      26.59      21.75       8.57
C      28.96      17.11       9.74
C      29.71      16.18      10.48
C      31.05      15.92      10.17
C      31.64      16.59       9.07
C      30.89      17.52       8.32
C      29.47      19.68       3.67
C      29.54      19.72       2.27
C      28.38      19.88       1.49
C      27.13      20.00       2.14
C      27.06      19.96       3.55
C      25.25      22.04       8.20
C      24.49      22.98       8.91
C      25.05      23.66      10.02
C      26.39      23.40      10.37
C      27.15      22.45       9.66
C      27.34      20.76       7.87
C      27.39      20.75       6.46
C      28.15      19.78       5.76
C      28.85      18.80       6.50
C      28.81      18.78       7.91
C      28.05      19.77       8.58
C      27.91      19.98      35.29
C      29.52      21.85      31.01
C      26.58      17.89      31.03
C      28.95      22.52      29.89
C      29.69      23.46      29.16
C      31.02      23.76      29.51
C      31.59      23.12      30.64
C      30.85      22.18      31.38
C      29.09      20.09      36.07
C      29.02      20.09      37.47
C      27.77      19.99      38.13
C      26.60      19.90      37.36
C      26.67      19.89      35.95
C      25.23      17.62      31.36
C      24.48      16.67      30.64
C      25.06      15.97      29.57
C      26.41      16.21      29.25
C      27.16      17.17      29.96
C      27.32      18.88      31.74
C      27.28      18.94      33.15
C      27.98      19.94      33.87
C      28.73      20.89      33.14
C      28.78      20.87      31.73
C      28.07      19.86      31.04
C      27.81      35.25      19.85
C      26.32      30.93      17.93
C      29.64      30.99      21.62
C      26.86      29.83      17.21
C      26.07      29.10      16.30
C      24.71      29.44      16.08
C      24.17      30.52      16.81
C      24.96      31.26      17.71
C      26.56      35.92      19.80
C      26.49      37.33      19.83
C      27.66      38.11      19.91
C      28.91      37.46      19.95
C      28.98      36.05      19.93
C      30.98      31.38      21.86
C      31.80      30.67      22.75
C      31.31      29.55      23.45
C      29.98      29.14      23.21
C      29.15      29.86      22.32
C      28.80      31.70      20.69
C      28.74      33.11      20.69
C      27.89      33.82      19.81
C      27.09      33.08      18.90
C      27.13      31.66      18.86
C      27.99      31.00      19.77
C      28.14       4.36      19.96
C      26.36       8.65      21.73
C      29.69       8.66      18.06
C      26.86       9.77      22.43
C      26.05      10.50      23.32
C      24.71      10.12      23.56
C      24.20       9.00      22.87
C      25.02       8.27      21.97
C      26.96       3.58      20.00
C      27.02       2.17      20.00
C      28.26       1.50      19.97
C      29.44       2.27      19.94
C      29.38       3.68      19.94
C      31.05       8.33      17.86
C      31.86       9.06      16.97
C      31.33      10.14      16.23
C      29.98      10.48      16.43
C      29.17       9.76      17.33
C      28.87       7.94      18.98
C      28.89       6.53      19.03
C      28.08       5.79      19.93
C      27.23       6.51      20.81
C      27.19       7.93      20.81
C      28.01       8.62      19.88
C      10.28      19.96      35.29
C       8.50      21.73      31.00
C      11.83      18.06      30.98
C       9.00      22.42      29.87
C       8.19      23.31      29.15
C       6.85      23.56      29.53
C       6.34      22.86      30.65
C       7.15      21.97      31.38
C       9.10      20.00      36.07
C       9.16      20.00      37.48
C      10.41      19.97      38.15
C      11.59      19.95      37.37
C      11.52      19.94      35.97
C      13.20      17.87      31.32
C      14.01      16.98      30.59
C      13.48      16.23      29.52
C      12.13      16.43      29.17
C      11.32      17.33      29.89
C      11.01      18.99      31.71
C      11.03      19.03      33.12
C      10.22      19.93      33.86
C       9.37      20.80      33.14
C       9.33      20.81      31.72
C      10.15      19.88      31.03
C       9.97      19.84       4.40
C       8.48      17.93       8.72
C      11.78      21.62       8.66
C       9.01      17.21       9.82
C       8.22      16.31      10.55
C       6.87      16.08      10.21
C       6.32      16.81       9.13
C       7.12      17.71       8.39
C       8.72      19.79       3.73
C       8.64      19.82       2.32
C       9.81      19.90       1.53
C      11.06      19.95       2.19
C      11.13      19.93       3.60
C      13.12      21.86       8.27
C      13.95      22.75       8.99
C      13.45      23.46      10.10
C      12.11      23.22      10.50
C      11.29      22.32       9.79
C      10.95      20.70       7.95
C      10.89      20.69       6.54
C      10.04      19.81       5.83
C       9.25      18.90       6.57
C       9.29      18.86       7.99
C      10.14      19.77       8.65
C      11.11      28.93      29.80
C      13.36      29.49      29.28
C      12.90      27.79      30.86
C      13.31      26.86      31.78
C       9.75      29.14      29.61
C      14.33      30.23      28.61
C      11.09       2.59       3.80
C      13.33       2.02       4.35
C      12.89       3.69       2.72
C      13.31       4.60       1.78
C       9.72       2.41       3.98
C      14.29       1.30       5.04
C      28.95       2.76      29.92
C      31.21       3.28      30.49
C      30.74       1.69      28.79
C      31.16       0.77      27.85
C      27.59       2.95      30.12
C      32.17       3.94      31.22
C      28.96      28.75       3.59
C      31.21      28.19       3.03
C      30.76      29.82       4.70
C      31.18      30.75       5.61
C      27.60      28.57       3.39
C      32.16      27.50       2.31
C      25.25       2.49      29.66
C      22.99       1.93      29.15
C      23.47       3.61      30.76
C      23.06       4.53      31.69
C      26.61       2.30      29.46
C      22.02       1.21      28.48
C      25.26      29.07       3.85
C      23.01      29.64       4.38
C      23.47      27.97       2.75
C      23.06      27.06       1.81
C      26.63      29.25       4.05
C      22.05      30.36       5.06
C       7.41      28.69      30.09
C       5.15      28.18      30.65
C       5.63      29.80      28.99
C       5.22      30.74      28.07
C       8.77      28.49      30.28
C       4.19      27.50      31.37
C       7.39       2.88       3.50
C       5.14       3.40       2.93
C       5.60       1.79       4.61
C       5.19       0.85       5.53
C       8.75       3.07       3.32
C       4.17       4.07       2.20
C      18.37      20.32      36.84
C      19.68      24.63      38.86
C      16.74      24.56      34.90
C      19.09      25.72      39.55
C      19.83      26.46       0.38
C      21.18      26.15       0.64
C      21.77      25.06      40.08
C      21.03      24.31      39.14
C      19.62      19.66      36.96
C      19.70      18.26      36.92
C      18.54      17.48      36.77
C      17.29      18.13      36.65
C      17.21      19.54      36.68
C      15.40      24.19      34.61
C      14.64      24.91      33.67
C      15.20      26.02      32.99
C      16.54      26.37      33.26
C      17.30      25.66      34.21
C      17.49      23.86      35.89
C      17.55      22.45      35.90
C      18.30      21.75      36.86
C      18.99      22.49      37.85
C      18.95      23.90      37.88
C      18.20      24.57      36.89
C      18.06      11.17      36.68
C      19.68       6.89      34.81
C      16.72       6.91      38.76
C      19.11       5.78      34.14
C      19.86       5.05      33.20
C      21.19       5.40      32.90
C      21.75       6.52      33.56
C      21.01       7.26      34.49
C      19.24      11.95      36.57
C      19.17      13.36      36.57
C      17.93      14.01      36.67
C      16.75      13.24      36.75
C      16.82      11.84      36.76
C      15.37       7.24      39.02
C      14.62       6.52      39.97
C      15.20       5.45       0.57
C      16.55       5.12       0.33
C      17.30       5.84      39.48
C      17.46       7.62      37.77
C      17.43       9.03      37.71
C      18.13       9.75      36.72
C      18.89       9.02      35.77
C      18.94       7.61      35.79
C      18.22       6.93      36.80
C       0.51      35.81      21.33
C       1.83      33.80      25.65
C      34.59      37.75      25.57
C       1.25      33.11      26.74
C       1.99      32.18      27.48
C       3.34      31.92      27.17
C       3.93      32.59      26.07
C       3.18      33.52      25.32
C       1.75      35.68      20.67
C       1.83      35.72      19.27
C       0.67      35.88      18.49
C      35.13      36.00      19.14
C      35.06      35.96      20.55
C      33.25      38.04      25.20
C      32.49      38.98      25.91
C      33.05      39.66      27.02
C      34.39      39.40      27.37
C      35.15      38.45      26.66
C      35.34      36.76      24.87
C      35.39      36.75      23.46
C       0.44      35.78      22.76
C       1.13      34.80      23.50
C       1.10      34.78      24.91
C       0.34      35.77      25.58
C       0.20      35.98      12.18
C       1.81      37.85       7.90
C      34.58      33.89       7.92
C       1.24      38.52       6.79
C       1.98      39.46       6.06
C       3.31      39.76       6.41
C       3.88      39.12       7.53
C       3.13      38.18       8.27
C       1.37      36.09      12.96
C       1.30      36.09      14.37
C       0.06      35.99      15.02
C      34.60      35.90      14.25
C      34.67      35.89      12.85
C      33.23      33.62       8.26
C      32.48      32.67       7.54
C      33.06      31.97       6.46
C      34.41      32.21       6.14
C      35.16      33.17       6.86
C      35.32      34.88       8.63
C      35.28      34.94      10.04
C       0.27      35.94      10.76
C       1.02      36.89      10.04
C       1.07      36.87       8.62
C       0.36      35.86       7.94
C       0.10      11.15      36.85
C      34.32       6.82      34.93
C       1.92       6.88      38.62
C      34.86       5.73      34.21
C      34.07       4.99      33.30
C      32.71       5.33      33.08
C      32.17       6.41      33.81
C      32.96       7.15      34.71
C      34.56      11.82      36.80
C      34.49      13.22      36.83
C      35.66      14.01      36.91
C       1.20      13.35      36.95
C       1.27      11.94      36.93
C       3.27       7.27      38.86
C       4.09       6.56      39.75
C       3.60       5.44       0.34
C       2.26       5.04       0.10
C       1.44       5.75      39.32
C       1.09       7.59      37.69
C       1.02       9.00      37.69
C       0.17       9.72      36.81
C      35.09       8.97      35.90
C      35.13       7.56      35.86
C       0.28       6.89      36.77
C       0.42      20.36      36.96
C      34.36      24.65      38.73
C       1.97      24.66      35.06
C      34.86      25.77      39.43
C      34.05      26.50       0.21
C      32.71      26.12       0.46
C      32.20      25.00      39.87
C      33.02      24.27      38.97
C      34.96      19.58      37.00
C      35.02      18.17      37.00
C       0.55      17.50      36.97
C       1.73      18.27      36.94
C       1.67      19.68      36.94
C       3.34      24.33      34.86
C       4.15      25.06      33.97
C       3.62      26.14      33.23
C       2.26      26.48      33.43
C       1.46      25.76      34.33
C       1.15      23.94      35.98
C       1.17      22.53      36.03
C       0.37      21.79      36.93
C      35.23      22.51      37.81
C      35.19      23.93      37.81
C       0.30      24.62      36.88
C      18.28      35.96      12.18
C      16.50      37.73       7.90
C      19.83      34.06       7.88
C      17.00      38.42       6.77
C      16.19      39.31       6.04
C      14.85      39.56       6.42
C      14.34      38.86       7.54
C      15.15      37.97       8.27
C      17.10      36.00      12.97
C      17.16      36.00      14.37
C      18.41      35.97      15.04
C      19.59      35.95      14.27
C      19.52      35.94      12.86
C      21.20      33.87       8.21
C      22.01      32.98       7.49
C      21.48      32.23       6.41
C      20.13      32.43       6.06
C      19.32      33.33       6.78
C      19.01      34.99       8.60
C      19.03      35.03      10.02
C      18.22      35.93      10.75
C      17.37      36.80      10.03
C      17.33      36.81       8.61
C      18.15      35.88       7.92
C      17.97      35.84      21.40
C      16.48      33.93      25.72
C      19.78      37.62      25.66
C      17.01      33.21      26.82
C      16.22      32.31      27.55
C      14.87      32.08      27.21
C      14.32      32.81      26.13
C      15.12      33.71      25.39
C      16.72      35.79      20.73
C      16.64      35.82      19.32
C      17.81      35.90      18.53
C      19.06      35.95      19.19
C      19.13      35.93      20.60
C      21.12      37.86      25.27
C      21.95      38.75      25.99
C      21.45      39.46      27.10
C      20.11      39.22      27.50
C      19.29      38.32      26.79
C      18.95      36.70      24.95
C      18.89      36.69      23.54
C      18.04      35.81      22.83
C      17.25      34.90      23.57
C      17.29      34.86      24.99
C      18.14      35.77      25.65
N       4.02      13.68      12.11
N       5.78      12.55      13.16
N       3.57      12.00      13.67
N       3.99      25.96      27.62
N       5.76      27.05      26.55
N       3.56      27.61      26.02
N      21.86      27.56      13.67
N      23.62      26.50      12.55
N      21.42      25.99      11.99
N      21.86      12.03      25.96
N      23.63      13.09      27.06
N      21.43      13.63      27.61
N      16.33      25.86      11.96
N      14.58      26.97      13.05
N      16.79      27.52      13.55
N      16.35      13.81      27.66
N      14.59      12.72      26.57
N      16.80      12.16      26.06
N      34.21      11.99      13.82
N      32.46      13.09      12.73
N      34.66      13.59      12.18
N      34.19      27.68      25.86
N      32.43      26.61      26.96
N      34.63      26.10      27.52
N       6.55      10.77      15.12
N      10.68       0.16      19.74
N      13.82      10.92      24.62
N       6.55      28.80      24.56
N       9.79      39.44      19.69
N      13.83      28.74      15.03
N      24.39      24.53      10.77
N      28.52      19.90       0.17
N      31.69      15.05      10.94
N      24.42      15.08      28.81
N      27.63      19.97      39.45
N      31.66      24.64      28.75
N      32.14      28.89      24.27
N      27.51      39.43      19.92
N      23.90      28.77      15.26
N      32.16      10.81      15.42
N      28.40       0.18      19.95
N      23.89      10.79      24.38
N      14.31      15.42      28.85
N      10.55      19.95      39.47
N       6.02      24.37      28.86
N      14.28      24.27      10.76
N       9.66      19.92       0.21
N       6.06      15.26      10.89
N      12.02      29.68      29.11
N      13.78      28.55      30.16
N      11.57      28.00      30.67
N      11.99       1.85       4.52
N      13.76       2.94       3.44
N      11.56       3.50       2.91
N      29.86       3.45      30.67
N      31.62       2.39      29.55
N      29.42       1.89      28.99
N      29.86      28.03       2.85
N      31.63      29.09       3.95
N      29.43      29.63       4.50
N      24.33       1.75      28.96
N      22.58       2.86      30.05
N      24.79       3.41      30.55
N      24.35      29.81       4.56
N      22.59      28.72       3.47
N      24.80      28.16       2.96
N       6.49      27.99      30.82
N       4.74      29.09      29.73
N       6.95      29.59      29.18
N       6.48       3.58       2.76
N       4.72       2.50       3.86
N       6.92       1.99       4.41
N      14.55      26.77      32.12
N      18.68      16.16      36.74
N      21.82      26.92       1.52
N      14.55       4.69       1.45
N      17.79      15.33      36.69
N      21.83       4.64      32.03
N      32.39       0.43      27.77
N       0.81      35.90      17.17
N       3.98      31.05      27.94
N      32.42      31.08       5.71
N      35.63      35.97      16.34
N       3.95       0.53       5.64
N       4.43       4.78       1.16
N      35.51      15.33      36.92
N      31.90       4.66      32.26
N       4.45      26.81      32.42
N       0.68      16.18      36.95
N      31.89      26.79       1.27
N      22.31      31.42       5.74
N      18.55      35.95      16.36
N      14.02       0.26       5.75
N      22.28       0.17      27.76
N      17.66      35.92      17.21
N      14.06      31.26      27.89
