36

Sc      12.49       4.03       0.00
Sc      18.74       6.93       0.00
Sc      15.61       5.48       1.45
Sc       9.37       5.48      -1.45
H      14.00       6.17      -0.57
H      17.07       5.01      -0.75
H      10.93       6.11       0.62
H       7.86       4.97       0.71
C      12.03       4.84      -3.04
C      18.29       6.06       3.03
C      15.15       2.43       0.65
C       8.90       8.52      -0.67
C       9.85       2.43      -0.66
C      16.09       8.52       0.69
C       6.70       6.10      -3.04
C      12.96       4.84       3.05
O      12.68       4.28      -2.10
O      10.81       5.21      -2.97
O      18.96       6.60       2.09
O      17.06       5.73       2.96
O      15.80       3.38       1.21
O      13.92       2.50       0.30
O       9.57       7.58      -1.22
O      20.17       8.45      -0.34
O       9.20       3.38      -1.21
O      11.08       2.49      -0.33
O      15.42       7.58       1.23
O      17.33       8.46       0.40
O      18.54       6.65      -2.10
O       7.93       5.77      -2.97
O      12.31       4.27       2.10
O      14.18       5.19       2.98
O      10.92       5.41      -0.04
O      17.14       5.58       0.03
O      14.05       5.43       0.06
O       7.80       5.55      -0.06
