14

C      23.12      17.01       6.97
C      23.80      16.63      10.52
O      24.14      15.50      10.00
O      26.91      15.85       9.51
O      26.30      15.50       6.80
Cu      25.23      15.59       8.41
O      23.58      15.85       7.27
O      23.64      18.14       7.33
C      26.66      16.63       6.29
O      24.12      17.79      10.07
O      26.36      17.79       6.74
O      26.84      18.14       9.50
C      27.35      17.01       9.84
Cu      25.24      18.05       8.41
