14

O      32.33       7.34      26.84
O      34.62       7.28      26.90
C      33.82       6.29      23.80
O      34.61       9.52      23.57
C      33.82      10.52      26.67
O      32.33       9.50      23.64
Cu      34.87       8.40      25.24
O      34.95       6.80      24.15
O      32.67       6.73      24.13
Cu      32.41       8.41      25.24
O      34.95      10.00      26.31
O      32.67      10.06      26.37
C      33.46       6.98      27.35
C      33.46       9.84      23.12
