16

H      -2.37      -0.54      12.99
O      -3.02      -0.44      15.29
O       1.06       0.77      15.76
H       2.34       0.86      13.53
O      -1.39       0.13      16.72
C      -1.81      -0.10      15.52
C      -0.86       0.05      14.39
C       0.50       0.46      14.56
C      -1.33      -0.23      13.10
O       1.36       0.24       9.80
O       2.98       0.78      11.25
O      -1.09      -0.41      10.75
C       1.78       0.44      11.01
C       0.83       0.27      12.13
C      -0.53      -0.13      11.96
C       1.31       0.55      13.42
