16

O       3.33       6.93       5.02
O       1.69       5.92       6.18
O       5.79       5.83       5.00
H       2.33       3.95       7.37
H       7.09       3.86       6.04
C       2.90       5.98       5.78
C       3.86       4.93       6.22
C       5.23       4.91       5.82
C       3.38       3.93       7.08
O       6.09       0.84       8.31
O       7.72       1.88       7.18
O       3.63       1.96       8.38
C       6.51       1.82       7.57
C       5.56       2.88       7.17
C       4.18       2.89       7.57
C       6.04       3.88       6.32
