28

H       2.46       3.75       6.32
H      -0.16       4.82       2.73
H      -0.09       6.60       2.85
H      -1.33       5.66       3.74
H       3.08       5.70       8.14
H       2.77       7.37       7.57
H       4.04       6.38       6.81
H       2.45      10.84       4.24
H      -0.13       9.75       7.86
H      -0.10       7.97       7.70
H      -1.32       8.95       6.84
H       3.08       8.88       2.42
H       2.77       7.22       2.98
H       4.04       8.20       3.75
C       1.24       6.56       5.36
C       2.05       5.86       6.28
C       0.66       5.54       4.54
C      -0.28       5.67       3.40
C       3.03       6.35       7.26
C       1.24       8.03       5.20
C       2.05       8.73       4.29
C       0.66       9.04       6.02
C      -0.27       8.91       7.17
C       3.02       8.23       3.30
N       1.08       4.32       4.93
N       1.88       4.54       6.01
N       1.08      10.26       5.63
N       1.88      10.05       4.55
