64

La       6.90       8.24       7.75
La       6.09       8.90       3.38
La       5.07       2.92       3.02
La       5.88       2.26       7.39
H       1.43       1.44       8.65
H       2.78       9.49       7.15
H       1.55       7.14       3.68
H      10.54       9.72       2.11
H       9.18       1.66       3.62
H      10.42       4.01       7.09
C       5.23      10.97       9.34
C       3.97      11.07      10.14
C       1.31       1.08       9.50
C       9.30       1.15      10.11
C       8.14       1.71       9.29
C       9.37       9.68       7.00
C      10.44      10.28       6.17
C       2.54      10.05       6.45
C       3.51      10.66       5.67
C       4.98      10.56       6.02
C       3.89       6.01       3.98
C       2.58       5.74       4.72
C       1.47       6.51       4.36
C       9.50       6.34       5.01
C       8.33       7.13       4.54
C       6.74       0.18       1.43
C       8.00       0.09       0.62
C      10.66      10.08       1.27
C       2.67      10.00       0.66
C       3.82       9.45       1.48
C       2.60       1.48       3.76
C       1.53       0.87       4.60
C       9.43       1.10       4.32
C       8.46       0.49       5.10
C       6.99       0.60       4.75
C       8.08       5.15       6.79
C       9.39       5.41       6.04
C      10.50       4.64       6.41
C       2.47       4.82       5.76
C       3.64       4.02       6.22
O       5.53       9.41       5.87
O       7.41       7.45       5.37
O       6.97       1.48       9.69
O       8.37       2.29       8.22
O       3.94       0.97       6.44
O       4.30       1.41       9.14
O       8.25       7.46       3.34
O       9.48       8.52       7.45
O       8.30      10.37       7.20
O       4.63       6.91       4.40
O       4.12       5.30       2.94
O       5.44       9.84       8.80
O       6.44       1.74       4.90
O       4.56       3.70       5.40
O       5.00       9.68       1.08
O       3.60       8.86       2.54
O       8.03      10.18       4.33
O       7.67       9.74       1.63
O       3.72       3.69       7.42
O       2.49       2.64       3.31
O       3.67       0.78       3.57
O       7.34       4.24       6.37
O       7.85       5.85       7.82
O       6.53       1.31       1.96
