42

Cd       4.61      16.29       8.07
Cd       6.02      18.16      10.93
C       3.40      19.52      12.09
Cd       5.54      16.59       4.75
Cd       5.09      17.87      14.25
Cd       4.61      16.89       1.43
Cd       6.02      15.00      -1.43
C       3.40      16.21      16.41
C       3.45      18.73       3.08
C       5.82      14.40       2.02
O       6.98      15.16       5.68
O       4.85      17.08      -0.81
O       5.78      14.82       0.81
O       3.97      18.98      11.09
O       3.72      17.55       3.56
O       3.72      15.63       5.93
O       3.97      14.20      -1.59
O       6.98      18.01       3.83
O       3.52      18.96       1.84
O       6.91      16.90      15.44
O       5.45      19.38      16.09
O       5.18      18.10       6.59
O       6.66      17.70       1.59
O       4.85      16.09      10.31
O       6.91      18.83      13.07
O       7.11      20.21      11.33
O       3.52      14.24       7.67
C       3.44      14.46       6.42
O       5.45      16.35      12.41
C       4.81      15.67      11.52
O       5.79      18.36       8.69
O       3.65      19.29      13.32
O       6.66      15.48       7.91
C       7.23      18.24       2.59
O       5.18      15.07       2.91
O       3.65      16.45      15.17
O       7.11      12.93      -1.84
C       4.81      17.50      -2.02
C       7.18      15.73      15.92
C       5.82      18.78       7.48
C       7.19      20.00      12.58
C       7.23      14.93       6.91
