24

N       8.88       4.33       1.73
H       4.96       1.04       2.38
H       7.57      -0.28       1.38
H       7.00      -2.18       2.03
H       3.02      -0.49       2.18
H       5.95      -4.42       2.02
N       4.01      -3.72       2.07
H       2.14      -2.83       2.14
C       7.57       4.23       2.07
C       6.87       3.03       2.08
C       7.54       1.85       1.72
C       8.89       1.96       1.35
C       9.52       3.19       1.37
C       6.91       0.53       1.71
C       5.64       0.24       2.07
C       5.35      -3.52       2.03
C       5.92      -2.26       2.03
C       5.10      -1.11       2.07
C       3.71      -1.33       2.12
C       3.21      -2.63       2.11
H       7.10       5.16       2.36
H       5.82       3.04       2.39
H       9.45       1.07       1.05
H      10.57       3.29       1.11
