28

O       8.49       6.59       3.63
O      10.56       6.15       4.36
O       4.91       4.18       8.21
C       9.18       4.46      10.65
C      11.20       4.38       9.18
C      10.23       6.60       9.86
C       8.73       5.72       5.84
C       7.42       5.22       5.87
C       6.91       4.71       7.06
C       7.69       4.71       8.23
C       9.01       5.17       8.21
C       9.52       5.66       7.00
C       9.30       6.20       4.55
C       9.89       5.15       9.47
C       5.53       4.13       7.10
O       5.07       3.65       6.01
H       8.94       3.41      10.42
H       8.26       4.97      10.94
H       9.85       4.45      11.52
H      11.76       4.82       8.35
H      10.99       3.33       8.93
H      11.84       4.39      10.07
H      10.89       6.61      10.74
H       9.32       7.17      10.11
H      10.74       7.13       9.04
H       6.81       5.23       4.97
H       7.24       4.33       9.14
H      10.55       6.01       6.93
