28

H       2.20      -0.16      12.32
H       1.52      -1.72      11.80
H       3.11      -1.20      11.21
H       5.02      -1.56      14.39
H       4.25      -0.07      13.81
H       5.10      -1.13      12.67
H       4.15      -3.36      12.00
H       2.58      -3.92      12.63
H       3.99      -3.87      13.70
H       0.07      -1.98      17.77
O       1.75      -3.34      19.10
O       3.82      -2.89      18.38
H       3.81      -2.75      15.81
H       0.50      -1.07      13.60
O      -1.83      -0.93      14.52
O      -1.69      -0.41      16.73
C       2.44      -1.20      12.09
C       4.46      -1.12      13.56
C       3.49      -3.35      12.88
C       1.99      -2.46      16.89
C       0.68      -1.97      16.87
C       0.16      -1.45      15.68
C       0.95      -1.46      14.51
C       2.27      -1.91      14.52
C       2.78      -2.41      15.74
C       2.56      -2.94      18.19
C      -1.22      -0.88      15.64
C       3.15      -1.89      13.27
