44

Cu       3.80       8.77      13.43
Cu       1.86      10.84      14.48
Cu       1.03       8.77      12.13
Cu       2.97      10.84      11.08
Cu       5.86      10.76      12.13
Cu      -1.87       8.69      11.08
Cu      -1.04      10.76      13.43
Cu       6.69       8.69      14.48
C       3.86       9.59      16.24
C       2.53      13.59      14.68
H       1.53       8.27      14.65
H       5.77       7.56      12.39
C       0.97       9.59       9.32
H       3.30       8.27      10.91
H      -0.95       7.56      13.17
C       2.29      13.59      10.88
O       1.68      12.67      15.01
O       1.86       8.85      13.94
O       5.63       8.47      12.84
O       3.15      12.67      10.55
O       2.96       8.85      11.62
O      -0.81       8.47      12.72
O       5.28      10.66      10.27
O      -2.92       9.09       9.47
C      -3.87       9.93       9.32
O      -0.46      10.66      15.29
O       7.75       9.09      16.09
O      -1.68       6.86      10.55
O      -1.87      10.68      11.62
O       4.03      11.06      12.72
O       6.51       6.86      15.01
O       6.70      10.68      13.94
O       0.80      11.06      12.84
O       4.37       8.87      15.29
O       2.92      10.44      16.09
C       8.69       9.93      16.24
H      -1.54      11.26      10.91
O       0.45       8.87      10.27
O       1.91      10.44       9.47
H       3.89      11.96      13.17
H       6.36      11.26      14.65
H       0.94      11.96      12.39
C      -2.54       5.94      10.88
C       7.37       5.94      14.68
