36

O       7.32      15.65      18.30
O       8.55      15.64      20.21
O      12.80      18.55      19.67
O      13.99      18.20      17.83
O       7.68      15.43       8.17
O       8.76      16.52       6.48
O      13.06      18.96       7.54
O      13.95      18.55       9.54
H      10.73      17.13      19.79
N       9.59      15.27      14.12
N       9.55      15.34      12.81
N      10.43      16.27      14.56
H      12.42      17.67      11.18
H      10.84      17.66       7.19
H       8.65      15.74      10.38
H      12.54      17.42      15.89
H       8.62      15.65      16.32
H      11.58      17.82      13.61
C       8.40      15.84      18.96
C       9.56      16.31      18.15
C      10.67      16.95      18.71
C      11.73      17.37      17.89
C      12.90      18.07      18.49
C      11.69      17.12      16.50
C      10.56      16.51      15.95
C       9.50      16.11      16.76
C      10.93      16.96      13.50
C      10.36      16.36      12.38
C      10.49      16.70      10.97
C      11.61      17.40      10.51
C      11.73      17.75       9.16
C      12.96      18.45       8.72
C      10.74      17.40       8.24
C       9.63      16.66       8.69
C       8.61      16.18       7.71
C       9.51      16.32      10.04
