36

C      16.87      16.73       2.66
C      17.57      15.65       3.24
C      16.53      16.79       1.24
C      17.06      16.16       0.12
C      16.51      16.43      -2.33
C      17.07      15.24      -2.79
C      17.27      15.06      -4.16
H      15.64      18.33      -2.87
C      17.93      13.80      -4.62
C      16.26      17.20      -4.61
C      16.87      16.03      -5.08
C      16.10      17.41      -3.24
H      17.03      15.88      -6.15
C      15.76      18.26      -5.55
C      16.45      17.78       3.49
O      19.04      14.56       6.42
O      18.64      13.39       4.57
O      16.35      18.76       6.98
O      15.49      19.77       5.13
O      17.97      12.79      -3.82
O      18.44      13.74      -5.79
O      15.83      18.06      -6.81
O      15.28      19.30      -5.00
N      15.54      17.65       0.80
N      15.43      17.58      -0.49
N      16.36      16.67      -0.93
H      17.88      15.47      -0.00
H      17.67      16.70       6.49
H      15.89      18.60       3.06
C      16.72      17.77       4.86
C      18.56      14.48       5.23
C      17.87      15.66       4.62
C      17.45      16.72       5.43
H      17.88      14.79       2.65
C      16.16      18.85       5.71
H      17.36      14.44      -2.10
