36

C      21.80      14.50      18.99
C      22.50      15.67      18.39
C      22.91      16.73      19.21
C      23.64      17.79      18.65
C      24.19      18.86      19.51
H      22.68      16.71      20.28
C      23.51      16.74      16.45
C      22.81      15.67      17.02
H      22.51      14.81      16.42
C      23.93      17.80      17.28
H      24.50      18.62      16.86
C      23.86      16.81      15.03
C      23.33      16.17      13.92
H      22.51      15.47      13.81
C      23.87      16.41      11.47
C      23.29      15.23      11.02
H      23.00      14.44      11.71
N      24.86      17.65      14.59
N      24.97      17.57      13.29
N      24.03      16.66      12.86
C      24.30      17.38      10.56
C      23.09      15.04       9.65
C      24.14      17.16       9.18
C      23.51      16.00       8.72
C      24.63      18.21       8.24
H      23.35      15.84       7.66
H      24.77      18.30      10.92
O      21.34      14.56      20.19
O      21.69      13.41      18.33
O      24.03      18.76      20.78
O      24.84      19.81      18.93
O      22.35      12.79      10.01
O      21.94      13.70       8.02
O      24.57      18.01       6.98
O      25.11      19.26       8.80
C      22.43      13.79       9.19
