36

C       5.10       0.95      22.38
C       4.41       2.12      22.99
C       3.99       3.18      22.19
C       3.26       4.24      22.76
C       2.70       5.32      21.90
C       2.99       4.24      24.13
C       3.41       3.19      24.95
C       4.11       2.12      24.37
C       3.07       3.25      26.38
C       3.60       2.62      27.49
C       3.05       2.89      29.94
O       5.18      -0.15      23.03
O       5.58       1.02      21.19
C       3.63       1.71      30.39
C       3.83       1.52      31.77
O       2.88       5.23      20.64
C       2.77       3.65      32.22
O       2.03       6.24      22.49
C       2.61       3.86      30.85
C       4.49       0.28      32.23
C       3.40       2.49      32.69
C       2.27       4.70      33.16
O       2.30       4.48      34.42
O       1.82       5.76      32.61
O       4.57      -0.73      31.43
O       4.98       0.21      33.41
N       2.07       4.10      26.81
N       1.96       4.04      28.11
N       2.90       3.13      28.55
H       4.21       3.17      21.12
H       2.42       5.06      24.56
H       4.41       1.25      24.96
H       4.42       1.93      27.61
H       3.93       0.92      29.71
H       3.56       2.33      33.75
H       2.15       4.77      30.48
