44

C      -4.68       3.98       9.70
C      -3.83       4.84      10.43
C      -8.01       1.45       3.82
C      -7.41       2.55       4.43
C      -5.30       7.22       5.90
C      -6.17       3.56       6.39
C      -3.85       3.31      12.32
C      -6.04       4.83       5.79
C      -5.35       7.42       4.51
C      -5.13       8.36       6.70
C      -5.01       9.61       6.11
C      -5.00       5.61       7.80
C      -8.65      -0.98       3.80
C      -5.16       4.32       8.34
C      -3.42       4.51      11.72
C      -5.25       8.70       3.99
C      -3.47       2.97      13.73
H      -5.72       2.10       9.73
H      -7.26      -0.95       6.13
H      -4.99       1.51      12.06
H      -6.23       1.03       7.25
N      -5.08       9.79       4.77
N      -5.74       3.33       7.65
H      -3.48       5.77       9.99
H      -8.54       1.56       2.88
H      -7.46       3.51       3.94
H      -6.41       4.99       4.78
H      -5.44       6.58       3.82
H      -5.13       8.30       7.78
H      -4.83      10.51       6.69
H      -4.52       6.39       8.38
O      -8.16      -2.14       4.12
H      -2.78       5.18      12.30
H      -5.28       8.88       2.92
O      -9.64      -0.79       3.04
O      -2.85       3.92      14.38
O      -3.76       1.85      14.20
C      -5.08       2.76      10.30
C      -5.44       5.87       6.50
C      -7.30       0.03       5.66
C      -4.67       2.43      11.58
C      -6.73       1.13       6.29
C      -6.77       2.41       5.69
C      -7.96       0.19       4.43
