44

H       5.60       8.13       4.69
H       4.80       5.84       4.01
H       6.55       6.65       8.59
H       0.43       0.77       0.77
H       5.73       4.41       7.97
H       1.47       0.75       2.99
H       2.86       0.44       4.44
H       2.78       4.20      -0.33
H       3.51      -1.27       5.40
H       3.82       4.21       1.96
H       4.31       1.31       8.78
H       3.42      -3.17       6.98
H       5.12       2.63       7.37
H       4.36      -0.74      10.20
N       3.87      -2.02       8.65
N       3.95       3.64       4.36
O       1.37       3.36      -2.12
O      -0.02       1.67      -1.52
O       6.17       9.88       6.35
O       6.92       9.04       8.32
C       5.63       7.29       5.38
C       5.19       6.03       5.01
C       6.09       7.53       6.69
C       6.16       6.47       7.59
C       1.18       1.52       1.02
C       5.70       5.20       7.23
C       1.78       1.51       2.28
C       5.18       4.97       5.94
C       3.93       0.20       6.94
C       2.73       2.48       2.63
C       3.35       1.35       4.79
C       3.97       1.38       6.05
C       3.37       2.49       3.97
C       2.50       3.46       0.42
C       3.66      -1.09       6.46
C       3.08       3.46       1.68
C       6.42       8.93       7.12
C       1.54       2.49       0.08
C       4.14       0.34       8.32
C       4.56       3.68       5.56
C       3.62      -2.16       7.33
C       4.59       2.57       6.43
C       0.90       2.48      -1.28
C       4.12      -0.79       9.14
