88

H       7.13       6.40      11.29
H       7.12       4.32      12.62
H       7.13      -6.40      19.34
H       7.12      -4.32      18.01
H       7.13      -4.03       8.90
H       7.13      -2.66      10.97
H       7.13       4.03      21.73
H       7.13       2.66      19.67
H       2.81      -6.41      19.34
H       2.81      -4.34      17.97
H       2.81       6.41      11.29
H       2.81       4.35      12.66
H       2.81       4.02      21.71
H       2.82       2.69      19.63
H       2.81      -4.02       8.92
H       2.82      -2.69      11.00
H       4.89       2.48      10.64
H       4.88      -0.16      10.04
H       4.89      -2.48      19.99
H       4.88       0.16      20.59
H       5.05      -4.68      12.84
H       5.06      -5.28      15.48
H       5.05       4.68      17.79
H       5.06       5.28      15.15
C       6.18       5.96      11.60
C       6.18       4.78      12.33
C       6.18      -5.96      19.03
C       6.18      -4.77      18.30
C       6.19      -3.71       9.34
C       6.19      -2.96      10.52
C       6.19       3.71      21.29
C       6.19       2.96      20.11
C       3.75      -5.97      19.02
C       3.75      -4.79      18.27
C       3.75       5.97      11.61
C       3.75       4.79      12.36
C       3.75       3.72      21.27
C       3.76       2.98      20.09
C       3.75      -3.72       9.36
C       3.76      -2.98      10.54
C       4.96       6.55      11.24
C       4.97       4.18      12.72
C       4.97       2.91      13.50
C       5.08       1.70      12.78
C       4.98       1.63      11.31
C       4.98       0.31      11.01
C       5.08      -0.41      12.29
C       4.96      -6.55      19.39
C       4.97      -4.18      17.91
C       4.97      -2.91      17.13
C       5.08      -1.70      17.85
C       4.98      -1.63      19.32
C       4.98      -0.31      19.62
C       5.08       0.41      18.34
C       4.97      -4.07       8.76
C       4.98      -2.60      11.13
C       4.97      -1.81      12.40
C       4.87      -2.53      13.62
C       4.97      -4.00      13.69
C       4.97      -4.31      15.01
C       4.87      -3.02      15.72
C       4.97       4.07      21.87
C       4.98       2.60      19.50
C       4.97       1.81      18.23
C       4.87       2.54      17.02
C       4.97       4.00      16.95
C       4.97       4.31      15.62
C       4.87       3.02      14.91
S       4.96       8.16      10.45
S       4.96      -8.15      20.18
S       4.96      -4.86       7.16
S       4.96       4.86      23.47
N       5.21       0.46      13.34
N       5.21      -0.46      17.29
N       4.74      -1.98      14.86
N       4.74       1.98      15.78
O       6.18       8.24       9.60
O       6.18      -8.24      21.03
O       6.18      -5.71       7.08
O       6.18       5.71      23.55
O       3.72      -8.23      21.00
O       3.72       8.23       9.63
O       3.72       5.68      23.55
O       3.72      -5.69       7.08
O       4.97       9.12      11.55
O       4.97      -9.12      19.08
O       4.97      -3.76       6.20
O       4.97       3.76      24.43
