50

N       1.45      15.33       3.97
C      -4.49      17.65       3.99
H      -0.48      14.44       4.13
H       0.81      18.42       3.32
H      -3.88      13.55       4.13
H      -7.03      16.23       3.19
H      -5.59      20.65       3.19
H      -2.14      20.33       5.66
H      -1.74      16.45      -1.00
H      -4.99      19.14      -0.43
H      -2.66      15.68       4.77
H      -2.45      14.97       3.15
H      -4.49      17.49       5.08
H      -5.50      17.97       3.68
H      -1.34      19.08       3.80
H      -2.04      18.09       5.12
H      -1.46      16.27       1.28
H      -1.00      17.98       1.49
H      -5.15      16.87       1.42
H      -3.88      15.63       1.22
H      -2.75      19.73       1.81
H      -4.48      19.31       1.77
C      -3.47      18.73       3.60
C       0.13      15.32       3.94
C       0.81      17.36       3.55
C      -4.85      13.94       3.83
C      -6.46      15.33       3.38
C      -4.79      20.89       3.90
N       1.89      16.63       3.73
N      -0.33      16.59       3.68
C      -3.03      20.71       5.17
N      -6.98      14.11       3.45
C      -4.40      18.28      -0.74
N      -4.64      22.04       4.54
N      -5.10      15.28       3.62
C      -2.71      16.91      -1.03
N      -3.53      21.92       5.35
N      -5.95      13.22       3.74
C      -3.14      17.65       1.36
C      -1.74      17.22       1.77
C      -1.70      16.99       3.30
C      -4.12      16.34       3.27
C      -2.07      18.28       4.04
N      -3.58      16.74      -2.04
N      -3.79      20.01       4.26
N      -4.64      17.59      -1.87
C      -4.14      16.56       1.75
N      -3.17      17.92      -0.15
C      -3.49      18.96       2.08
C      -2.71      15.89       3.69
