50

H       6.36      14.00      15.14
N       3.98      11.80      14.75
N       6.21      11.84      14.69
H       5.07      10.01      14.33
N       4.42      13.10      14.99
H      11.48       7.79      14.20
N      10.53       6.40      15.55
H       8.02       8.10      16.67
N       9.67       8.42      15.27
N       9.41       6.52      16.36
H      10.37      10.94      16.09
H      11.38      10.46      14.69
H       7.22       9.36      14.81
H       7.92      10.34      16.13
H       7.35      12.16      12.28
H       6.88      10.45      12.50
N       9.05      10.51      10.86
H      11.03      11.57      12.43
H       8.64       8.70      12.82
H      10.36       9.13      12.79
C       5.75      13.11      14.95
C       5.07      11.07      14.56
H       9.76      12.80      12.23
C      10.73      14.50      14.84
C      10.68       7.55      14.91
C       8.91       7.73      16.18
C       8.59      11.51       9.97
C      10.29      10.15      10.27
C       7.58      11.44      14.31
C       8.59      12.55      14.69
C      10.00      12.10      14.28
C      10.37      10.79      15.00
C       9.35       9.70      14.61
C       7.95      10.15      15.05
C       7.62      11.22      12.78
C       9.02      10.78      12.37
C      10.02      11.87      12.75
C       9.37       9.48      13.09
H       7.62      11.97      10.01
N      10.98      13.15      14.63
H      10.87       9.29      10.58
N      12.86      14.32      14.47
H       8.54      12.75      15.77
H       8.33      13.47      14.16
N       9.46      11.68       8.96
N      10.52      10.83       9.14
N      11.84      15.21      14.75
H       9.77      14.89      15.14
H      12.91      12.20      14.20
C      12.35      13.10      14.39
