50

H       5.40      13.99      17.90
H       6.69      10.01      18.70
H       2.00      14.89      17.89
H      -1.15      12.20      18.83
H       0.29       7.79      18.83
H       3.74       8.10      16.36
H       4.14      11.97      23.02
H       0.89       9.29      22.45
H       3.23      12.75      17.26
H       3.43      13.47      18.88
H       1.39      10.94      16.95
H       0.39      10.46      18.34
H       4.54       9.36      18.23
H       3.84      10.34      16.91
H       4.42      12.16      20.75
H       4.88      10.45      20.54
H       0.73      11.57      20.60
H       2.00      12.80      20.80
H       3.13       8.70      20.21
H       1.40       9.13      20.25
N       7.34      13.10      18.04
N       7.78      11.80      18.29
C       6.01      13.11      18.08
C       6.69      11.07      18.48
C       1.03      14.50      18.19
N       0.78      13.15      18.41
C      -0.58      13.10      18.64
N       5.55      11.84      18.35
N       2.09       8.42      17.76
C       1.48      10.15      22.77
N       2.30      11.68      24.07
N       1.25      10.83      23.89
N       2.71      10.51      22.17
N      -0.08      15.21      18.28
C       4.18      11.44      18.73
C       3.18      12.55      18.34
N      -1.10      14.32      18.56
C       1.76      12.10      18.76
C       1.39      10.79      18.03
C       2.41       9.70      18.42
C       3.81      10.15      17.99
C       4.14      11.22      20.25
C       2.74      10.78      20.66
C       1.74      11.87      20.28
C       2.39       9.48      19.94
C       1.09       7.55      18.12
N       1.24       6.40      17.49
C       2.86       7.73      16.85
N       2.35       6.52      16.68
C       3.17      11.50      23.06
