50

C       5.75       5.85       3.94
C       5.07       7.89       3.55
C      10.73       4.46       3.83
C      12.34       5.85       3.38
C      10.67      11.41       3.90
C       8.90      11.23       5.17
C       8.59       7.45      -1.04
C      10.29       8.81      -0.74
C       7.58       7.51       3.29
C       8.58       6.41       3.68
C      10.00       6.86       3.26
C      10.37       8.17       3.99
C       9.35       9.25       3.60
C       7.95       8.81       4.04
C       7.62       7.74       1.77
C       9.02       8.18       1.36
C      10.02       7.09       1.74
C       9.37       9.48       2.08
H      10.36       9.83       1.78
H      11.03       7.39       1.42
N       9.41      12.44       5.35
H       8.53       6.20       4.76
N       3.98       7.15       3.74
H      11.38       8.49       3.68
N       6.21       7.11       3.67
H       7.22       9.60       3.80
N      11.84       3.74       3.74
H       8.64      10.26       1.81
H       7.34       6.80       1.27
N      10.98       5.80       3.61
H       6.36       4.96       4.13
H       5.07       8.94       3.32
H       9.76       4.07       4.13
H      12.91       6.76       3.19
H      11.47      11.17       3.19
H       8.02      10.85       5.66
H       7.62       6.99      -1.00
H      10.87       9.67      -0.43
N       4.42       5.86       3.98
H       9.76       6.15       1.22
H       8.33       5.49       3.14
H      10.37       8.01       5.08
N      12.86       4.63       3.46
H       7.92       8.61       5.12
N      10.53      12.55       4.54
H       6.88       8.51       1.49
N       9.67      10.53       4.26
N       9.46       7.27      -2.05
N      10.51       8.13      -1.87
N       9.05       8.44      -0.15
