16

O       2.70      10.84       8.60
O       1.71       9.15       7.54
O       4.43      14.07       2.70
O       4.38      12.11       1.59
H       3.33      12.77       7.22
H       4.19      13.85       5.12
H       3.39      10.25       2.93
H       2.54       9.15       5.01
C       2.38      10.30       7.51
C       2.82      10.91       6.24
C       3.32      12.23       6.28
C       3.80      12.83       5.11
C       3.79      12.12       3.90
C       3.34      10.79       3.87
C       2.84      10.19       5.03
C       4.25      12.82       2.65
