16

C      12.98      21.80       3.89
C      12.53      23.14       3.86
C      12.05      23.74       5.02
C      13.44      21.12       2.62
O      11.85      23.08       8.60
H      12.51      21.15       7.20
O      10.94      24.80       7.53
H      11.75      24.79       5.00
H      12.59      23.68       2.92
H      13.36      20.07       5.11
O      13.58      19.86       2.64
O      13.60      21.85       1.58
C      11.57      23.63       7.50
C      12.02      23.02       6.23
C      12.51      21.69       6.26
C      12.97      21.09       5.10
