16

O       1.74       2.85      25.69
O       0.65       2.65      23.75
C      -2.08      -2.22      27.12
C      -1.32      -1.07      26.56
C      -0.18      -0.58      27.22
C      -1.73      -0.46      25.36
H       0.14      -1.07      28.15
O      -2.95      -2.81      26.37
O      -1.86      -2.61      28.31
H      -2.62      -0.83      24.85
H       1.41       0.87      27.21
H      -1.35       1.10      23.92
C       0.87       2.26      24.94
C       0.11       1.11      25.50
C      -1.03       0.62      24.84
C       0.52       0.50      26.70
