13

C       4.83      18.03       0.62
C       5.18      19.22       1.28
C       4.69      20.40       0.74
C       3.87      20.41      -0.42
C       3.52      19.24      -1.08
C       4.02      18.04      -0.54
H       2.89      19.25      -1.97
H       5.78      19.19       2.19
H       4.91      21.35       1.23
H       3.53      21.37      -0.80
N       5.14      16.71       0.87
N       4.54      15.98      -0.06
N       3.86      16.74      -0.93
