13

N      12.64       5.91      25.16
N      13.24       6.65      26.09
N      13.92       5.89      26.96
C      12.94       4.60      25.42
C      12.60       3.41      24.75
C      13.09       2.23      25.29
C      13.90       2.21      26.46
C      14.25       3.38      27.12
C      13.76       4.58      26.58
H      12.00       3.43      23.84
H      12.87       1.28      24.81
H      14.25       1.25      26.84
H      14.88       3.37      28.00
