16

H       2.95      15.81      15.90
H       2.05      14.69      17.94
H       2.70      18.31      20.20
H       3.61      19.41      18.14
C       3.90      18.40      15.70
C       3.34      17.68      16.91
C       2.88      16.35      16.84
C       2.35      15.74      17.98
C       2.27      16.45      19.20
C       2.75      17.77      19.26
C       3.26      18.38      18.12
C       1.79      15.86      20.48
O       4.21      19.62      15.88
O       3.97      17.77      14.60
O       2.14      16.43      21.55
O       1.09      14.75      20.55
