16

C       1.05      19.35      11.93
C       0.28      18.22      12.53
C      -0.77      17.62      11.81
C      -1.45      16.53      12.35
H      -1.03      18.01      10.83
H      -2.26      16.06      11.80
H       0.20      16.28      15.34
H       1.44      18.22      14.34
C      -1.10      16.05      13.63
C      -0.06      16.66      14.35
C       0.63      17.74      13.80
C      -1.82      14.90      14.21
O       2.03      19.84      12.61
O       0.73      19.81      10.79
O      -1.58      14.53      15.42
O      -2.68      14.27      13.49
