16

H       8.14      15.93      10.84
H       6.91      17.86      11.84
H       9.37      17.63      15.36
H      10.62      15.70      14.35
C      10.22      14.58      11.94
C       9.45      15.71      12.54
C       8.40      16.31      11.83
C       7.72      17.39      12.38
O      11.20      14.07      12.61
O       9.90      14.13      10.79
C       9.80      16.18      13.81
C       9.11      17.25      14.38
C       8.08      17.86      13.66
C       7.38      19.03      14.24
O       7.64      19.41      15.44
O       6.50      19.65      13.54
