16

H      12.15      18.10      15.88
H      11.23      19.23      17.90
H      11.86      15.63      20.19
H      12.78      14.51      18.14
O      13.32      14.27      15.87
O      13.16      16.14      14.60
O      11.27      17.51      21.51
O      10.23      19.19      20.47
C      13.05      15.50      15.70
C      12.51      16.24      16.90
C      12.06      17.57      16.82
C      11.52      18.18      17.95
C      11.43      17.48      19.17
C      11.91      16.15      19.24
C      12.43      15.54      18.11
C      10.94      18.07      20.44
