16

O       1.76      14.07      25.49
O       0.49      13.95      23.66
H      -1.30      12.18      23.81
H      -2.49      10.25      24.87
H       0.14      10.46      28.26
H       1.34      12.39      27.20
O      -2.92       8.57      26.57
O      -1.64       8.69      28.40
C      -0.99      11.79      24.78
C       0.50      11.92      26.70
C       0.09      12.39      25.44
C       0.81      13.52      24.83
C      -1.97       9.12      27.24
C      -1.24      10.25      26.62
C      -0.16      10.85      27.29
C      -1.65      10.72      25.36
