16

H       4.31      19.95       7.78
H       4.99      19.09       5.51
H       6.23      15.39       7.27
H       5.60      16.25       9.56
O       4.35      19.92      10.31
O       4.58      17.84      11.13
O       6.07      17.44       3.93
O       6.19      15.38       4.82
C       4.58      18.67      10.15
C       4.93      18.15       8.80
C       4.75      18.96       7.66
C       5.12      18.48       6.41
C       5.65      17.19       6.28
C       5.82      16.38       7.41
C       5.47      16.86       8.67
C       5.99      16.64       4.93
