16

C       7.74      13.57       1.07
C       8.49      12.41       0.51
C       9.62      11.92       1.18
C       8.07      11.79      -0.68
C      10.64       9.03      -1.07
C       9.89      10.20      -0.51
C       8.76      10.69      -1.18
C      10.31      10.82       0.68
O       6.83      14.13       0.35
O       8.02      14.00       2.24
H       8.44      10.19      -2.10
H      11.19      10.45       1.20
H       9.94      12.41       2.10
H       7.19      12.16      -1.20
O      11.55       8.48      -0.35
O      10.36       8.60      -2.23
