948

C      33.07      11.70       1.27
C      33.05      11.58      40.51
C      32.98      13.76      41.63
C      34.17      11.51      39.66
C      34.12      10.76      38.47
C      32.94      10.07      38.11
C      31.82      10.14      38.96
C      31.88      10.88      40.16
C      34.22      11.01       1.72
C      34.21      10.37       2.97
C      33.07      10.41       3.80
C      31.93      11.12       3.35
C      31.93      11.75       2.09
C      34.00      14.58       0.48
C      -6.41      15.98       0.48
C      32.73      16.61      41.61
C      31.72      15.78      41.07
C      31.84      14.38      41.09
C      32.53      18.00      41.63
C      33.05       9.78       5.04
C      32.86       9.35      36.93
C      -7.37      25.25       1.30
C      -7.33      25.33      40.55
C      -7.26      23.17       0.01
C      -8.44      25.37      39.68
C      -8.37      26.09      38.47
C      -7.19      26.77      38.11
C      -6.07      26.72      38.97
C      -6.15      26.02      40.19
C      -8.52      25.95       1.74
C      -8.52      26.62       2.98
C      -7.38      26.60       3.81
C      -6.24      25.88       3.38
C      -6.23      25.22       2.13
C      -8.28      22.35       0.52
C      -8.14      20.94       0.52
C      -6.99      20.32      41.66
C      -5.97      21.17      41.14
C      -6.10      22.57      41.17
C      -6.79      18.94      41.66
C      -7.37      27.24       5.04
C      -7.10      27.47      36.92
C      -1.06      34.44      19.58
C      -1.29      34.30      22.00
C       0.81      35.13      21.00
C      -1.80      35.29      22.85
C      -2.66      34.95      23.91
C      -3.04      33.61      24.14
C      -2.50      32.61      23.29
C      -1.63      32.95      22.24
C      -2.14      35.24      19.13
C      -2.72      35.02      17.87
C      -2.23      34.00      17.02
C      -1.13      33.22      17.46
C      -0.56      33.44      18.72
C       1.15      36.40      20.50
C       2.49      36.85      20.54
C       3.51      36.06      21.12
C       3.15      34.79      21.64
C       1.82      34.33      21.57
C       4.86      36.43      21.12
C      -2.81      33.75      15.78
C      -3.99      33.26      25.08
C      26.80       2.47      19.54
C      26.97       2.64      21.96
C      24.89       1.79      20.94
C      27.47       1.65      22.84
C      28.30       2.02      23.92
C      28.64       3.38      24.15
C      28.11       4.36      23.27
C      27.27       3.99      22.20
C      27.89       1.68      19.12
C      28.50       1.91      17.87
C      28.02       2.92      17.01
C      26.91       3.69      17.42
C      26.31       3.47      18.68
C      24.54       0.52      20.46
C      23.21       0.07      20.51
C      22.19       0.88      21.08
C      22.56       2.16      21.57
C      23.89       2.61      21.49
C      20.84       0.51      21.09
C      28.61       3.17      15.78
C      29.57       3.75      25.11
C     -11.24      34.47      10.65
C      -6.85      33.25      12.55
C      -8.46      31.05       8.40
C      -5.47      33.35      12.24
C      -4.51      33.53      13.26
C      -4.91      33.61      14.61
C      -6.28      33.50      14.92
C      -7.23      33.32      13.91
C     -11.92      34.66      11.88
C     -13.09      35.42      11.96
C     -13.65      36.01      10.80
C     -12.99      35.82       9.56
C     -11.80      35.06       9.49
C      -8.76      31.39       7.06
C      -8.59      30.47       6.01
C      -8.10      29.17       6.27
C      -7.81      28.81       7.61
C      -7.98      29.74       8.65
C      -8.64      31.99       9.46
C      -9.82      32.76       9.54
C     -10.04      33.70      10.57
C      -9.02      33.86      11.55
C      -7.83      33.09      11.52
C      -7.66      32.17      10.46
C      36.86       2.32      10.31
C      32.61       3.63      12.48
C      34.09       5.90       8.33
C      31.22       3.57      12.21
C      30.28       3.38      13.24
C      30.70       3.26      14.58
C      32.08       3.31      14.86
C      33.02       3.49      13.83
C      37.62       2.06      11.47
C      38.79       1.27      11.41
C      39.22       0.71      10.19
C      38.46       0.96       9.02
C      37.30       1.75       9.08
C      34.32       5.55       6.97
C      34.14       6.49       5.94
C      33.72       7.81       6.23
C      33.49       8.16       7.58
C      33.67       7.22       8.61
C      34.31       4.94       9.37
C      35.46       4.13       9.36
C      35.69       3.14      10.35
C      34.73       3.00      11.38
C      33.56       3.80      11.43
C      33.37       4.76      10.41
C      36.96       2.46      31.09
C      32.54       3.66      29.25
C      34.14       5.79      33.44
C      31.18       3.44      29.55
C      30.23       3.25      28.52
C      30.63       3.33      27.16
C      31.99       3.55      26.86
C      32.93       3.72      27.89
C      37.62       2.29      29.85
C      38.80       1.53      29.76
C      39.36       0.93      30.90
C      38.71       1.09      32.14
C      37.53       1.85      32.24
C      34.53       5.45      34.76
C      34.39       6.36      35.82
C      33.83       7.64      35.60
C      33.44       7.99      34.29
C      33.59       7.08      33.23
C      34.33       4.87      32.36
C      35.53       4.13      32.24
C      35.75       3.21      31.19
C      34.73       3.06      30.22
C      33.52       3.80      30.28
C      33.33       4.69      31.37
C     -11.14      34.63      31.43
C      -6.87      33.32      29.30
C      -8.34      31.13      33.51
C      -5.49      33.49      29.57
C      -4.57      33.67      28.52
C      -5.00      33.66      27.18
C      -6.37      33.50      26.90
C      -7.30      33.33      27.95
C     -11.90      34.87      30.26
C     -13.06      35.66      30.30
C     -13.50      36.23      31.51
C     -12.75      36.00      32.68
C     -11.58      35.22      32.64
C      -8.66      31.47      34.85
C      -8.51      30.55      35.89
C      -8.01      29.25      35.64
C      -7.69      28.90      34.31
C      -7.85      29.83      33.26
C      -8.56      32.07      32.45
C      -9.73      32.86      32.41
C      -9.96      33.82      31.40
C      -9.00      33.95      30.38
C      -7.82      33.17      30.36
C      -7.61      32.24      31.41
C       0.00      22.52       1.27
C      -0.02      22.40      40.51
C      -0.09      24.58      41.63
C       1.10      22.33      39.66
C       1.05      21.58      38.47
C      -0.13      20.89      38.11
C      -1.25      20.96      38.96
C      -1.20      21.70      40.16
C       1.14      21.83       1.72
C       1.14      21.18       2.97
C      -0.00      21.22       3.80
C      -1.14      21.93       3.35
C      -1.14      22.57       2.09
C       0.93      25.40       0.48
C       0.80      26.80       0.48
C      -0.34      27.43      41.61
C      -1.36      26.60      41.07
C      -1.24      25.19      41.09
C      -0.54      28.82      41.63
C      -0.03      20.60       5.04
C      -0.21      20.17      36.93
C      -0.16      36.07       1.30
C      -0.12      36.15      40.55
C      -0.05      33.99       0.01
C      -1.23      36.19      39.68
C      -1.16      36.91      38.47
C      15.52       0.41      38.11
C      16.64       0.36      38.97
C       1.06      36.83      40.19
C      -1.31      36.77       1.74
C      14.19       0.25       2.98
C      15.33       0.23       3.81
C       0.97      36.70       3.38
C       0.98      36.04       2.13
C      -1.07      33.16       0.52
C      -0.93      31.76       0.52
C       0.22      31.14      41.66
C       1.24      31.98      41.14
C       1.11      33.38      41.17
C       0.42      29.76      41.66
C      15.34       0.87       5.04
C      15.61       1.10      36.92
C      21.64       8.08      19.58
C      21.42       7.93      22.00
C      23.52       8.76      21.00
C      20.91       8.93      22.85
C      20.05       8.59      23.91
C      19.67       7.24      24.14
C      20.21       6.24      23.29
C      21.08       6.58      22.24
C      20.57       8.87      19.13
C      19.99       8.65      17.87
C      20.48       7.63      17.02
C      21.58       6.86      17.46
C      22.15       7.07      18.72
C      23.86      10.04      20.50
C      25.20      10.48      20.54
C      26.22       9.69      21.12
C      25.85       8.42      21.64
C      24.53       7.96      21.57
C      27.57      10.06      21.12
C      19.90       7.39      15.78
C      18.72       6.89      25.08
C      34.01      13.28      19.54
C      34.18      13.45      21.96
C      32.10      12.61      20.94
C      34.68      12.47      22.84
C      -4.78      12.84      23.92
C      -4.44      14.19      24.15
C      -4.97      15.17      23.27
C      -5.80      14.81      22.20
C      -5.18      12.50      19.12
C      -4.58      12.72      17.87
C      -5.05      13.74      17.01
C      34.12      14.51      17.42
C      33.52      14.29      18.68
C      31.75      11.33      20.46
C      30.42      10.89      20.51
C      29.40      11.70      21.08
C      29.77      12.98      21.57
C      31.10      13.43      21.49
C      28.05      11.33      21.09
C      -4.46      13.99      15.78
C      -3.51      14.57      25.11
C      11.47       8.10      10.65
C      15.86       6.88      12.55
C      14.25       4.68       8.40
C      17.24       6.98      12.24
C      18.20       7.16      13.26
C      17.80       7.24      14.61
C      16.43       7.14      14.92
C      15.48       6.95      13.91
C      10.79       8.29      11.88
C       9.62       9.06      11.96
C       9.06       9.64      10.80
C       9.72       9.46       9.56
C      10.91       8.70       9.49
C      13.95       5.03       7.06
C      14.12       4.10       6.01
C      14.61       2.80       6.27
C      14.90       2.45       7.61
C      14.73       3.37       8.65
C      14.07       5.62       9.46
C      12.88       6.40       9.54
C      12.67       7.34      10.57
C      13.69       7.49      11.55
C      14.88       6.73      11.52
C      15.05       5.80      10.46
C       3.79      13.14      10.31
C      -0.47      14.44      12.48
C       1.02      16.71       8.33
C      -1.85      14.39      12.21
C      -2.79      14.20      13.24
C      -2.37      14.07      14.58
C      -0.99      14.12      14.86
C      -0.05      14.31      13.83
C       4.55      12.87      11.47
C       5.71      12.08      11.41
C       6.15      11.53      10.19
C       5.39      11.78       9.02
C       4.23      12.57       9.08
C       1.24      16.37       6.97
C       1.07      17.31       5.94
C       0.65      18.62       6.23
C       0.42      18.98       7.58
C       0.60      18.03       8.61
C       1.23      15.76       9.37
C       2.39      14.95       9.36
C       2.62      13.96      10.35
C       1.66      13.82      11.38
C       0.49      14.62      11.43
C       0.30      15.58      10.41
C       3.89      13.28      31.09
C      -0.53      14.48      29.25
C       1.07      16.61      33.44
C      -1.90      14.25      29.55
C      -2.84      14.07      28.52
C      -2.45      14.14      27.16
C      -1.08      14.36      26.86
C      -0.14      14.53      27.89
C       4.55      13.11      29.85
C       5.73      12.35      29.76
C       6.29      11.75      30.90
C       5.64      11.91      32.14
C       4.45      12.66      32.24
C       1.46      16.27      34.76
C       1.32      17.18      35.82
C       0.76      18.45      35.60
C       0.37      18.81      34.29
C       0.52      17.89      33.23
C       1.25      15.69      32.36
C       2.45      14.94      32.24
C       2.67      14.03      31.19
C       1.65      13.88      30.22
C       0.45      14.61      30.28
C       0.26      15.50      31.37
C      11.57       8.27      31.43
C      15.84       6.96      29.30
C      14.36       4.77      33.51
C      17.22       7.12      29.57
C      18.14       7.31      28.52
C      17.71       7.29      27.18
C      16.33       7.13      26.90
C      15.41       6.97      27.95
C      10.81       8.51      30.26
C       9.65       9.30      30.30
C       9.21       9.87      31.51
C       9.96       9.64      32.68
C      11.13       8.85      32.64
C      14.05       5.11      34.85
C      14.20       4.18      35.89
C      14.70       2.89      35.64
C      15.02       2.53      34.31
C      14.86       3.46      33.26
C      14.15       5.70      32.45
C      12.98       6.49      32.41
C      12.74       7.45      31.40
C      13.71       7.59      30.38
C      14.89       6.80      30.36
C      15.10       5.88      31.41
C       7.21      33.34       1.27
C       7.19      33.22      40.51
C       7.12      35.40      41.63
C       8.31      33.15      39.66
C       8.26      32.40      38.47
C       7.08      31.70      38.11
C       5.96      31.78      38.96
C       6.01      32.52      40.16
C       8.35      32.64       1.72
C       8.35      32.00       2.97
C       7.21      32.04       3.80
C       6.07      32.75       3.35
C       6.07      33.39       2.09
C       8.14      36.21       0.48
C      23.50       0.43       0.48
C      22.36       1.06      41.61
C      21.35       0.23      41.07
C       5.97      36.01      41.09
C      22.17       2.45      41.63
C       7.18      31.41       5.04
C       7.00      30.99      36.93
C      22.55       9.70       1.30
C      22.59       9.78      40.55
C      22.66       7.62       0.01
C      21.48       9.82      39.68
C      21.55      10.54      38.47
C      22.73      11.22      38.11
C      23.85      11.17      38.97
C      23.77      10.47      40.19
C      21.40      10.40       1.74
C      21.40      11.07       2.98
C      22.54      11.05       3.81
C      23.68      10.34       3.38
C      23.68       9.68       2.13
C      21.64       6.80       0.52
C      21.78       5.40       0.52
C      22.93       4.78      41.66
C      23.95       5.62      41.14
C      23.82       7.02      41.17
C      23.13       3.39      41.66
C      22.55      11.69       5.04
C      22.82      11.92      36.92
C      28.85      18.89      19.58
C      28.63      18.75      22.00
C      30.73      19.58      21.00
C      28.12      19.75      22.85
C      27.26      19.41      23.91
C      26.88      18.06      24.14
C      27.42      17.06      23.29
C      28.29      17.40      22.24
C      27.78      19.69      19.13
C      27.20      19.47      17.87
C      27.69      18.45      17.02
C      28.79      17.67      17.46
C      29.36      17.89      18.72
C      31.07      20.85      20.50
C      -7.88      21.30      20.54
C      -6.85      20.51      21.12
C      -7.22      19.24      21.64
C      31.74      18.78      21.57
C      -5.50      20.88      21.12
C      27.11      18.20      15.78
C      25.93      17.71      25.08
C       0.93      24.10      19.54
C       1.10      24.27      21.96
C      -0.97      23.43      20.94
C       1.60      23.29      22.84
C       2.43      23.65      23.92
C       2.77      25.01      24.15
C       2.24      25.99      23.27
C       1.41      25.63      22.20
C       2.03      23.31      19.12
C       2.63      23.54      17.87
C       2.16      24.56      17.01
C       1.05      25.33      17.42
C       0.45      25.11      18.68
C      -1.32      22.15      20.46
C      -2.66      21.71      20.51
C      -3.68      22.52      21.08
C      -3.31      23.80      21.57
C      -1.98      24.25      21.49
C      -5.03      22.14      21.09
C       2.75      24.81      15.78
C       3.70      25.38      25.11
C      18.67      18.92      10.65
C      23.07      17.70      12.55
C      21.46      15.50       8.40
C      24.45      17.80      12.24
C      25.41      17.98      13.26
C      25.01      18.06      14.61
C      23.64      17.95      14.92
C      22.69      17.77      13.91
C      18.00      19.11      11.88
C      16.83      19.87      11.96
C      16.27      20.46      10.80
C      16.93      20.28       9.56
C      18.12      19.52       9.49
C      21.16      15.85       7.06
C      21.33      14.92       6.01
C      21.82      13.62       6.27
C      22.11      13.26       7.61
C      21.94      14.19       8.65
C      21.28      16.44       9.46
C      20.09      17.21       9.54
C      19.88      18.15      10.57
C      20.90      18.31      11.55
C      22.09      17.54      11.52
C      22.26      16.62      10.46
C      11.00      23.95      10.31
C       6.74      25.26      12.48
C       8.23      27.53       8.33
C       5.36      25.21      12.21
C       4.42      25.02      13.24
C       4.84      24.89      14.58
C       6.22      24.94      14.86
C       7.16      25.13      13.83
C      11.76      23.69      11.47
C      12.92      22.90      11.41
C      13.36      22.35      10.19
C      12.60      22.60       9.02
C      11.44      23.38       9.08
C       8.45      27.19       6.97
C       8.28      28.13       5.94
C       7.86      29.44       6.23
C       7.63      29.80       7.58
C       7.81      28.85       8.61
C       8.44      26.58       9.37
C       9.60      25.76       9.36
C       9.83      24.78      10.35
C       8.87      24.63      11.38
C       7.70      25.43      11.43
C       7.51      26.40      10.41
C      11.10      24.10      31.09
C       6.68      25.30      29.25
C       8.28      27.42      33.44
C       5.31      25.07      29.55
C       4.37      24.89      28.52
C       4.76      24.96      27.16
C       6.13      25.18      26.86
C       7.07      25.35      27.89
C      11.76      23.93      29.85
C      12.94      23.17      29.76
C      13.50      22.56      30.90
C      12.85      22.73      32.14
C      11.66      23.48      32.24
C       8.67      27.08      34.76
C       8.53      28.00      35.82
C       7.97      29.27      35.60
C       7.58      29.62      34.29
C       7.73      28.71      33.23
C       8.46      26.50      32.36
C       9.66      25.76      32.24
C       9.88      24.85      31.19
C       8.86      24.70      30.22
C       7.66      25.43      30.28
C       7.47      26.32      31.37
C      18.78      19.08      31.43
C      23.05      17.77      29.30
C      21.57      15.58      33.51
C      24.43      17.94      29.57
C      25.35      18.13      28.52
C      24.92      18.11      27.18
C      23.54      17.95      26.90
C      22.62      17.78      27.95
C      18.02      19.33      30.26
C      16.86      20.11      30.30
C      16.42      20.69      31.51
C      17.17      20.45      32.68
C      18.34      19.67      32.64
C      21.26      15.93      34.85
C      21.41      15.00      35.89
C      21.91      13.70      35.64
C      22.23      13.35      34.31
C      22.07      14.28      33.26
C      21.36      16.52      32.45
C      20.19      17.31      32.41
C      19.95      18.27      31.40
C      20.92      18.40      30.38
C      22.10      17.62      30.36
C      22.31      16.69      31.41
H      35.03      12.02      39.90
H      30.95       9.66      38.72
H      31.05      10.93      40.76
H      34.95      10.74      37.87
H      31.09      12.25       1.78
H      35.06      10.97       1.13
H      35.06       9.88       3.27
H      31.08      11.17       3.92
H      -5.45      14.15       0.90
H      30.86      16.18      40.67
H      31.08      13.80      40.71
H      -5.68      16.53       0.93
H      31.59      18.31      41.58
H      32.53      10.19       5.78
H      32.07       9.48      36.34
H      -9.30      24.87      39.93
H      -5.20      27.21      38.74
H      -5.33      25.99      40.80
H      -9.19      26.10      37.86
H      -5.40      24.72       1.84
H      -9.36      25.97       1.15
H      -9.37      27.11       3.26
H      -5.40      25.85       3.96
H      -9.12      22.76       0.93
H      -5.11      20.77      40.75
H      -5.33      23.14      40.81
H      31.40      20.39       0.94
H      -5.84      18.63      41.65
H      -6.81      26.86       5.78
H      -6.34      27.28      36.30
H      -1.58      36.28      22.68
H      -2.76      31.62      23.41
H      -1.28      32.21      21.62
H      -3.06      35.71      24.48
H       0.22      32.85      19.03
H      -2.52      35.97      19.74
H      -3.50      35.61      17.58
H      -0.76      32.47      16.87
H       0.44      36.99      20.06
H       3.85      34.17      22.05
H       1.59      33.39      21.92
H      18.20       0.57      20.11
H       5.53      35.69      21.16
H      -2.23      33.47      15.02
H      -4.61      32.51      24.87
H      27.27       0.66      22.67
H      28.34       5.34      23.39
H      26.93       4.71      21.56
H      28.69       1.28      24.51
H      25.52       4.06      18.97
H      28.26       0.94      19.73
H      29.29       1.32      17.60
H      26.54       4.44      16.83
H       9.75      37.10      20.03
H      21.85       2.79      21.96
H      24.12       3.55      21.83
H       7.49      36.35      20.10
H      20.17       1.25      21.11
H      28.05       3.50      15.03
H      30.15       4.54      24.91
H      -6.60      33.55      15.90
H      -8.22      33.23      14.18
H      -3.53      33.63      13.00
H     -11.34      34.97       8.58
H     -11.56      34.23      12.74
H     -13.55      35.54      12.86
H     -13.35      36.25       8.71
H      -9.09      32.34       6.83
H      -7.49      27.87       7.83
H      -7.78      29.44       9.61
H      -8.81      30.76       5.06
H      -9.14      34.56      12.28
H     -10.57      32.61       8.85
H      -6.80      31.61      10.43
H      -5.15      33.33      11.27
H      32.42       3.21      15.82
H      34.01       3.54      14.08
H      29.29       3.33      13.00
H      36.77       1.89       8.22
H      37.36       2.47      12.37
H      39.33       1.12      12.27
H      38.75       0.57       8.12
H      34.60       4.60       6.72
H      33.21       9.11       7.83
H      33.52       7.52       9.58
H      34.32       6.21       4.97
H      34.86       2.26      12.08
H      36.17       4.28       8.64
H      32.53       5.35      10.43
H      30.88       3.63      11.24
H      32.31       3.57      25.89
H      33.91       3.88      27.63
H      29.26       3.07      28.76
H      37.07       1.92      33.15
H      37.26       2.73      29.00
H      39.26       1.43      28.84
H      39.08       0.65      32.99
H      34.92       4.52      34.97
H      33.06       8.92      34.10
H      33.33       7.38      32.29
H      34.69       6.08      36.76
H      34.85       2.38      29.47
H      36.28       4.29      32.92
H      32.46       5.22      31.43
H      30.86       3.36      30.52
H      -6.72      33.52      25.94
H      -8.28      33.21      27.72
H      -3.58      33.81      28.74
H     -11.05      35.09      33.51
H     -11.62      34.45      29.37
H     -13.60      35.80      29.44
H     -13.04      36.41      33.58
H      -9.00      32.41      35.08
H      -7.36      27.96      34.09
H      -7.64      29.52      32.31
H      -8.75      30.83      36.85
H      -9.13      34.67      29.66
H     -10.45      32.71      33.13
H      -6.75      31.68      31.41
H      -5.15      33.52      30.53
H       1.96      22.83      39.90
H      -2.12      20.48      38.72
H      -2.02      21.75      40.76
H       1.88      21.55      37.87
H      -1.98      23.07       1.78
H       1.98      21.79       1.13
H       1.99      20.70       3.27
H      -1.99      21.98       3.92
H       1.76      24.97       0.90
H      -2.21      27.00      40.67
H      -2.00      24.62      40.71
H       1.53      27.35       0.93
H      -1.49      29.13      41.58
H      -0.54      21.01       5.78
H      -1.00      20.30      36.34
H      -2.09      35.69      39.93
H      17.51       0.84      38.74
H       1.88      36.80      40.80
H      -1.98      36.92      37.86
H       1.81      35.54       1.84
H      -2.15      36.79       1.15
H      13.33       0.74       3.26
H       1.81      36.66       3.96
H      -1.91      33.58       0.93
H       2.10      31.58      40.75
H       1.87      33.96      40.81
H      -1.67      31.21       0.94
H       1.37      29.44      41.65
H      15.90       0.49       5.78
H      16.37       0.92      36.30
H      21.13       9.91      22.68
H      19.95       5.26      23.41
H      21.43       5.85      21.62
H      19.65       9.34      24.48
H      22.93       6.48      19.03
H      20.19       9.61      19.74
H      19.21       9.24      17.58
H      21.95       6.11      16.87
H      23.15      10.62      20.06
H      26.56       7.80      22.05
H      24.30       7.03      21.92
H      25.41      11.39      20.11
H      28.24       9.33      21.16
H      20.48       7.10      15.02
H      18.10       6.14      24.87
H      34.48      11.48      22.67
H      -4.73      16.16      23.39
H      -6.14      15.53      21.56
H      -4.39      12.10      24.51
H      32.73      14.87      18.97
H      -4.82      11.76      19.73
H      -3.78      12.13      17.60
H      33.75      15.26      16.83
H      32.46      10.73      20.03
H      29.06      13.61      21.96
H      31.33      14.37      21.83
H      30.20       9.98      20.10
H      27.38      12.07      21.11
H      -5.02      14.32      15.03
H      -2.92      15.35      24.91
H      16.11       7.19      15.90
H      14.49       6.86      14.18
H      19.18       7.26      13.00
H      11.37       8.61       8.58
H      11.15       7.86      12.74
H       9.16       9.17      12.86
H       9.36       9.89       8.71
H      13.62       5.97       6.83
H      15.22       1.50       7.83
H      14.93       3.07       9.61
H      13.90       4.39       5.06
H      13.57       8.20      12.28
H      12.14       6.24       8.85
H      15.91       5.24      10.43
H      17.56       6.96      11.27
H      -0.65      14.03      15.82
H       0.94      14.36      14.08
H      -3.78      14.14      13.00
H       3.69      12.71       8.22
H       4.28      13.29      12.37
H       6.25      11.93      12.27
H       5.68      11.39       8.12
H       1.53      15.42       6.72
H       0.14      19.93       7.83
H       0.45      18.33       9.58
H       1.25      17.02       4.97
H       1.79      13.08      12.08
H       3.10      15.09       8.64
H      -0.54      16.16      10.43
H      -2.20      14.45      11.24
H      -0.76      14.39      25.89
H       0.84      14.70      27.63
H      -3.82      13.89      28.76
H       3.99      12.74      33.15
H       4.19      13.55      29.00
H       6.18      12.25      28.84
H       6.01      11.47      32.99
H       1.85      15.34      34.97
H      -0.01      19.74      34.10
H       0.26      18.20      32.29
H       1.61      16.90      36.76
H       1.78      13.19      29.47
H       3.21      15.10      32.92
H      -0.61      16.04      31.43
H      -2.21      14.18      30.52
H      15.99       7.15      25.94
H      14.43       6.84      27.72
H      19.13       7.44      28.74
H      11.66       8.73      33.51
H      11.09       8.09      29.37
H       9.11       9.44      29.44
H       9.67      10.04      33.58
H      13.71       6.04      35.08
H      15.35       1.59      34.09
H      15.07       3.16      32.31
H      13.96       4.46      36.85
H      13.58       8.30      29.66
H      12.26       6.34      33.13
H      15.96       5.31      31.41
H      17.56       7.15      30.53
H       9.17      33.65      39.90
H       5.09      31.29      38.72
H       5.19      32.57      40.76
H       9.09      32.37      37.87
H       5.23      33.89       1.78
H       9.19      32.61       1.13
H       9.20      31.51       3.27
H       5.22      32.80       3.92
H       8.97      35.79       0.90
H      20.50       0.64      40.67
H       5.21      35.44      40.71
H      24.24       0.98       0.93
H      21.22       2.76      41.58
H       6.67      31.83       5.78
H       6.21      31.12      36.34
H      20.62       9.33      39.93
H      24.72      11.66      38.74
H      24.59      10.44      40.80
H      20.73      10.55      37.86
H      24.52       9.17       1.84
H      20.56      10.43       1.15
H      20.54      11.56       3.26
H      24.52      10.30       3.96
H      20.80       7.22       0.93
H      24.81       5.22      40.75
H      24.58       7.59      40.81
H      21.04       4.84       0.94
H      24.08       3.08      41.65
H      23.11      11.31       5.78
H      23.58      11.73      36.30
H      28.34      20.73      22.68
H      27.16      16.08      23.41
H      28.64      16.66      21.62
H      26.86      20.16      24.48
H      30.14      17.30      19.03
H      27.40      20.42      19.74
H      26.42      20.06      17.58
H      29.16      16.92      16.87
H      30.36      21.44      20.06
H      -6.51      18.62      22.05
H      31.51      17.84      21.92
H      -7.66      22.20      20.11
H      -4.84      20.14      21.16
H      27.69      17.92      15.02
H      25.31      16.96      24.87
H       1.41      22.30      22.67
H       2.48      26.98      23.39
H       1.07      26.35      21.56
H       2.82      22.91      24.51
H      -0.34      25.69      18.97
H       2.39      22.58      19.73
H       3.43      22.95      17.60
H       0.68      26.08      16.83
H      -0.61      21.55      20.03
H      -4.01      24.42      21.96
H      -1.75      25.19      21.83
H      -2.87      20.80      20.10
H      -5.69      22.88      21.11
H       2.19      25.14      15.03
H       4.29      26.17      24.91
H      23.32      18.01      15.90
H      21.70      17.68      14.18
H      26.39      18.08      13.00
H      18.58      19.42       8.58
H      18.36      18.68      12.74
H      16.37      19.99      12.86
H      16.57      20.70       8.71
H      20.83      16.79       6.83
H      22.43      12.32       7.83
H      22.14      13.89       9.61
H      21.11      15.21       5.06
H      20.78      19.01      12.28
H      19.35      17.06       8.85
H      23.12      16.06      10.43
H      24.77      17.78      11.27
H       6.56      24.85      15.82
H       8.15      25.18      14.08
H       3.43      24.96      13.00
H      10.90      23.53       8.22
H      11.49      24.10      12.37
H      13.46      22.75      12.27
H      12.89      22.21       8.12
H       8.74      26.24       6.72
H       7.35      30.75       7.83
H       7.66      29.15       9.58
H       8.46      27.84       4.97
H       9.00      23.90      12.08
H      10.31      25.91       8.64
H       6.67      26.98      10.43
H       5.01      25.27      11.24
H       6.45      25.20      25.89
H       8.05      25.52      27.63
H       3.39      24.71      28.76
H      11.20      23.55      33.15
H      11.40      24.37      29.00
H      13.39      23.07      28.84
H      13.22      22.29      32.99
H       9.06      26.16      34.97
H       7.20      30.55      34.10
H       7.47      29.02      32.29
H       8.82      27.72      36.76
H       8.99      24.01      29.47
H      10.42      25.92      32.92
H       6.60      26.85      31.43
H       5.00      25.00      30.52
H      23.20      17.97      25.94
H      21.63      17.66      27.72
H      26.34      18.26      28.74
H      18.87      19.54      33.51
H      18.30      18.90      29.37
H      16.32      20.25      29.44
H      16.88      20.86      33.58
H      20.92      16.86      35.08
H      22.56      12.41      34.09
H      22.28      13.98      32.31
H      21.17      15.28      36.85
H      20.79      19.12      29.66
H      19.47      17.16      33.13
H      23.17      16.13      31.41
H      24.77      17.97      30.53
N      33.09      12.35       0.01
N      -7.38      24.58       0.06
N      -0.51      34.64      20.87
N      26.22       2.26      20.82
N      -7.98      28.35       5.23
N     -14.75      36.73      10.95
N      -4.08      33.81      15.63
N      33.61       8.64       5.20
N     -15.46      37.17      10.05
N      29.89       3.06      15.61
N      33.74       8.46      36.65
N       0.18       0.21      30.74
N      29.73       3.11      26.21
N      -7.92      28.42      36.67
N     -14.60      36.96      31.64
N      -4.10      33.87      26.21
N       0.02      23.17       0.01
N      -0.17      35.40       0.06
N      22.20       8.28      20.87
N      33.43      13.08      20.82
N      14.72       1.99       5.23
N       7.96      10.36      10.95
N      18.63       7.45      15.63
N       0.54      19.45       5.20
N       7.25      10.80      10.05
N      -3.19      13.88      15.61
N       0.67      19.27      36.65
N       7.39      11.03      30.74
N      -3.34      13.92      26.21
N      14.79       2.05      36.67
N       8.11      10.59      31.64
N      18.60       7.50      26.21
N       7.23      33.99       0.01
N      22.54       9.03       0.06
N      29.41      19.09      20.87
N       0.36      23.90      20.82
N      21.93      12.80       5.23
N      15.17      21.18      10.95
N      25.84      18.26      15.63
N       7.75      30.27       5.20
N      14.46      21.62      10.05
N       4.02      24.69      15.61
N       7.88      30.09      36.65
N      14.60      21.85      30.74
N       3.86      24.74      26.21
N      22.00      12.87      36.67
N      15.32      21.41      31.64
N      25.81      18.32      26.21
