74

Br       2.80      22.05       6.19
Br       0.54      22.13       3.76
Br       6.24      25.52       3.12
Br       4.12      25.33       0.55
H       5.95      26.34      10.07
H       7.82      25.20      11.06
H       6.00      21.95       4.91
H       7.65      20.62       6.06
H       3.78      26.09       5.77
H      10.28      21.21      10.03
C      11.94      23.92      12.32
C      11.37      23.83      13.60
C       9.98      23.63      13.74
C       9.19      23.36      12.60
C       9.77      23.43      11.32
C      11.13      23.77      11.18
O       1.45      30.89      10.06
O       0.77      30.59       7.98
O      12.82      16.36       6.34
O      12.81      16.50       8.54
C       1.52      30.26       8.95
O       0.71      23.25       0.85
O       1.00      25.39       1.29
C      12.31      16.81       7.42
C       1.32      24.18       1.46
O      12.65      24.79      15.35
C      12.23      23.74      14.78
O      12.55      22.59      15.21
C      11.17      17.77       7.39
C      10.19      17.73       8.42
C       9.33      18.82       8.62
C       9.49      19.99       7.85
C      10.38      20.00       6.76
C      11.17      18.86       6.49
C       2.19      23.09       3.54
C       2.42      23.87       2.39
C       3.67      24.50       2.22
C       4.59      24.53       3.28
C       4.90      25.89       7.59
C       4.53      25.50       6.30
C       4.97      24.31       5.73
C       5.92      23.52       6.40
C       6.42      23.96       7.65
C       5.89      25.13       8.27
C       6.37      25.50       9.53
C       7.43      24.83      10.12
C       3.13      23.08       4.59
C       7.43      23.20       8.30
C       6.38      22.31       5.85
C       7.33      21.55       6.52
C       7.97      23.67       9.53
C       4.28      23.89       4.49
C       7.90      21.99       7.72
C       9.03      22.95      10.13
C       9.47      21.76       9.55
C       8.92      21.27       8.37
Br       6.51      28.58       8.33
Br       4.53      30.92       9.65
Br       1.88      25.07       8.03
Br      -0.02      27.74       7.85
Br      11.91      23.98       9.42
Br      13.84      24.13      12.12
Br       7.37      22.77      12.83
Br       9.16      23.74      15.48
Br      10.65      21.62       5.74
Br      12.34      18.89       4.95
Br       7.99      18.76      10.01
Br      10.06      16.21       9.61
C       3.77      29.28       8.99
C       2.37      29.16       8.79
C       1.84      27.94       8.33
C       2.67      26.82       8.21
C       4.08      26.97       8.21
C       4.62      28.23       8.57
