74

Br       5.42      26.44      25.04
Br       3.69      29.06      23.95
Br       0.66      23.16      24.44
Br      -1.15      25.94      24.35
H       6.58      23.71      21.60
H       4.56      24.47      22.66
H       7.61      19.34      26.68
H       5.67      20.20      27.82
H      10.01      20.57      22.71
H       2.45      23.64      26.90
O      12.40      15.34      26.72
C      10.33      16.88      24.15
C      11.16      16.87      25.30
C      11.11      17.98      26.19
C      10.30      19.10      25.89
C       9.43      19.06      24.78
C       9.40      17.92      23.96
O      12.59      15.13      24.54
O       0.24      29.09      23.15
O       0.30      29.06      25.36
O       0.55      19.73      31.86
C      12.10      15.72      25.54
O       0.71      21.86      32.35
C       0.60      28.55      24.24
C       1.09      20.87      31.65
C       9.68      22.07      19.07
C      10.53      23.21      19.16
C      10.39      24.09      20.26
C       9.60      23.71      21.37
C       8.88      22.50      21.33
C       8.84      21.75      20.15
O      12.14      24.48      17.90
O      12.23      22.29      17.77
C      11.68      23.34      18.21
C       8.35      21.91      22.58
C       9.10      20.90      23.18
C       8.67      20.26      24.35
C       7.49      20.71      25.00
C       6.73      21.75      24.41
C       7.13      22.32      23.17
C       6.32      23.28      22.56
C       5.15      23.72      23.18
C       4.78      23.24      24.45
C       5.55      22.21      25.05
C       7.06      20.14      26.21
C       5.93      20.64      26.86
C       5.16      21.66      26.29
C       4.01      22.17      26.94
C       3.30      23.22      26.36
C       3.67      23.78      25.14
C       2.80      27.38      24.28
C       1.40      27.31      24.23
C       0.76      26.06      24.32
C       1.53      24.89      24.48
C       2.92      24.98      24.68
C       3.56      26.24      24.59
Br       4.60      24.18      29.24
Br       2.78      23.66      31.89
Br       2.82      19.24      26.87
Br       1.64      18.24      29.76
Br       8.05      17.77      22.58
Br      10.48      15.59      22.72
Br      10.42      20.71      26.94
Br      12.22      18.06      27.76
C       2.77      22.29      30.50
C       2.05      21.06      30.62
Br       7.63      20.25      20.02
C       2.26      20.07      29.60
Br       9.68      20.91      17.53
Br       9.60      24.77      22.98
C       2.90      20.43      28.39
C       3.52      21.68      28.27
C       3.54      22.57      29.36
Br      11.35      25.77      20.36
