74

Br      20.35      12.18      10.79
Br      18.41      14.74       9.99
Br      18.40       9.22       6.23
Br      16.69      11.85       5.22
O      27.52      -0.03      10.47
O      27.12      -0.16       8.31
C      24.89       1.58       8.47
C      25.87       1.47       9.49
C      25.97       2.52      10.44
C      25.35       3.76      10.18
C      24.51       3.91       9.07
C      24.18       2.78       8.30
H      23.23       9.36       6.09
H      21.34      10.50       7.02
H      22.39       4.32      10.55
H      20.40       5.38      11.37
H      25.63       5.33       7.15
H      18.19       9.57      10.51
O      15.91      14.33       6.51
O      15.78      14.36       8.71
C      26.87       0.36       9.44
O      15.56       5.05      15.21
C      26.45       8.97       4.45
C      26.40       8.11       3.31
C      25.56       6.95       3.38
C      24.81       6.69       4.54
C      25.00       7.46       5.70
C      25.83       8.59       5.66
C      16.36      13.98       7.65
O      27.62       9.53       1.88
O      27.46       7.41       1.36
C      15.88       6.23      14.90
O      15.40       7.23      15.52
C      27.18       8.37       2.14
C      18.38      13.15       8.89
C      17.53      13.06       7.76
C      17.66      11.95       6.89
C      18.45      10.85       7.27
C      19.19      10.89       8.48
C      19.22      12.07       9.23
Br      16.59       6.99       9.61
Br      14.47       6.45      12.10
Br      20.85       7.67      13.49
Br      18.89       6.33      15.82
C      24.33       7.03       6.96
C      24.76       5.84       7.56
C      24.06       5.25       8.62
C      22.90       5.88       9.12
C      22.48       7.12       8.57
C      23.19       7.69       7.49
C      22.73       8.90       6.93
C      21.63       9.56       7.46
C      20.90       9.00       8.53
C      21.33       7.77       9.08
C      22.12       5.28      10.13
C      20.97       5.90      10.61
C      20.58       7.16      10.13
C      19.44       7.83      10.65
C      19.07       9.06      10.11
C      19.76       9.64       9.05
Br      22.75       2.90       7.01
Br      24.48       0.12       7.26
Br      25.69       5.28      11.33
Br      26.92       2.29      12.11
Br      26.13       9.59       7.28
Br      27.43      10.64       4.47
Br      23.47       5.30       4.53
Br      25.33       5.71       1.92
C      16.35       6.62      12.47
C      16.83       6.48      13.79
C      18.19       6.68      14.06
C      19.06       7.14      13.04
C      18.58       7.26      11.72
C      17.23       6.95      11.43
