74

C      15.74       9.51      25.90
C      16.67       8.47      25.75
C      18.05       8.75      25.74
C      18.50      10.05      26.07
Br      18.38       3.65      22.72
Br      16.82       3.10      19.87
Br      19.90       8.92      20.92
Br      17.88       8.66      18.34
C      25.22       6.39      30.58
C      25.30       5.19      31.35
C      24.35       4.16      31.08
C      23.53       4.22      29.94
C      23.66       5.29      29.04
C      24.44       6.40      29.39
O      14.79      12.52      27.16
H      19.65       7.94      27.70
O      14.88      12.32      24.96
H      21.49       6.80      28.78
H      21.27       4.95      21.83
H      17.87       8.01      23.24
H      24.73       3.56      27.42
H      23.08       3.78      22.92
O      26.93      -1.32      23.25
O      27.17      -1.26      25.45
C      15.24      11.94      26.11
O      15.87       4.82      17.78
C      26.72      -0.76      24.37
O      15.53       6.97      18.10
O      26.98       5.90      32.83
C      16.19       5.91      18.35
O      26.80       3.76      32.38
C      26.38       4.95      32.24
C      25.99       0.43      24.43
C      24.58       0.39      24.28
C      23.81       1.53      24.60
C      24.46       2.74      24.95
C      25.86       2.81      24.94
C      26.62       1.64      24.75
C      17.56       4.86      20.21
C      17.30       5.96      19.35
C      18.03       7.17      19.55
C      18.89       7.30      20.67
C      18.96       6.28      21.63
C      18.33       5.04      21.38
C      18.97       7.79      25.08
C      18.71       7.52      23.73
C      19.46       6.60      23.00
C      20.58       5.98      23.61
Br      20.37      10.49      25.98
C      20.02       7.11      25.73
Br      16.05       6.66      25.46
C      21.33       6.63      27.73
C      22.16       5.76      27.01
Br      13.88       9.17      25.53
Br      18.16      12.84      26.84
C      20.84       6.21      24.99
C      20.27       7.29      27.10
C      21.42       5.12      22.89
C      21.90       5.53      25.63
C      22.46       4.45      23.52
C      22.69       4.60      24.89
C      23.69       3.85      25.57
C      23.95       4.12      26.91
C      23.23       5.08      27.63
Br      24.58       7.89      28.17
Br      26.28       7.95      30.99
Br      22.28       2.80      29.55
Br      24.11       2.68      32.29
Br      26.75       4.50      25.22
Br      28.54       1.71      24.94
Br      21.89       1.37      24.72
Br      23.70      -1.25      23.77
C      17.56      11.06      26.36
C      16.18      10.81      26.21
