21

O       4.77       3.50      12.44
O       4.58       4.66       8.95
O       3.31       5.64      10.57
O       4.99       8.56      11.44
O       7.03       8.29      12.39
C       7.52       4.83      12.16
C       8.83       5.45      11.63
C       6.56       4.31      11.09
C       5.77       3.16      11.71
C       5.74       5.59      10.76
C       4.40       5.29      10.06
C       5.67       6.35      12.10
C       5.90       7.86      11.96
H       7.84       4.04      12.86
H       7.11       3.94      10.22
H       6.33       6.16      10.04
H       4.71       6.17      12.60
O       6.73       5.77      12.94
O       9.24       6.45      12.33
O       9.43       4.93      10.66
O       6.19       1.99      11.51
