21

O       5.77      12.94       6.73
O       6.45      12.33       9.24
O       4.93      10.66       9.43
O       1.99      11.51       6.19
O       3.50      12.44       4.77
O       4.66       8.95       4.58
O       5.64      10.57       3.31
O       8.56      11.44       4.99
O       8.29      12.39       7.03
H       4.04      12.86       7.84
H       3.94      10.22       7.11
H       6.16      10.04       6.33
H       6.17      12.60       4.71
C       4.83      12.16       7.52
C       5.45      11.63       8.83
C       4.31      11.09       6.56
C       3.16      11.71       5.77
C       5.59      10.76       5.74
C       5.29      10.06       4.40
C       6.35      12.10       5.67
C       7.86      11.96       5.90
