21

O      18.18      14.02      16.14
O      18.79      11.51      16.82
O      20.46      11.32      15.30
O      19.61      14.55      12.36
O      18.67      15.97      13.88
O      22.16      16.17      15.03
O      20.54      17.43      16.02
O      19.67      15.75      18.93
O      18.73      13.72      18.67
C      18.96      13.23      15.20
C      19.49      11.92      15.82
C      20.03      14.19      14.68
C      19.40      14.98      13.53
C      20.35      15.01      15.96
C      21.06      16.34      15.66
C      19.01      15.07      16.72
C      19.15      14.85      18.23
H      18.26      12.91      14.41
H      20.90      13.63      14.31
H      21.08      14.41      16.53
H      18.52      16.03      16.54
