21

O       2.56       3.64      14.98
O       1.95       1.14      14.30
O       0.29       0.94      15.82
O       1.14       4.18      18.76
O       2.07       5.60      17.24
O      -1.42       5.79      16.08
O       0.20       7.06      15.10
O       1.07       5.38      12.19
O       2.01       3.35      12.45
C       1.78       2.85      15.92
C       1.26       1.54      15.30
C       0.72       3.81      16.43
C       1.34       4.61      17.58
H       2.49       2.53      16.70
H      -0.15       3.26      16.81
C       0.39       4.64      15.15
C       1.73       4.70      14.40
H      -0.34       4.04      14.58
C      -0.31       5.97      15.45
H       2.23       5.66      14.57
C       1.59       4.47      12.89
