21

O      19.80       4.93      20.46
O      16.57       1.99      19.61
O      15.15       3.50      18.67
O      14.95       4.66      22.16
H      18.21       4.04      18.26
H      17.48       3.94      20.90
H      16.71       6.16      21.08
O      13.68       5.64      20.54
H      15.09       6.17      18.52
O      15.36       8.56      19.67
O      17.40       8.29      18.73
C      17.89       4.83      18.96
C      19.20       5.45      19.49
C      16.93       4.31      20.03
C      16.14       3.16      19.40
C      16.11       5.59      20.35
C      14.78       5.29      21.06
C      16.05       6.35      19.01
C      16.27       7.86      19.15
O      17.10       5.77      18.18
O      19.61       6.45      18.79
