16

C       1.38       5.60       8.87
H      -1.79       4.36       8.70
H      -0.38       8.35       7.86
H       2.39       5.29       9.12
C       0.61       3.24       9.24
C       0.33       4.67       8.90
C      -0.98       5.08       8.63
C      -1.24       6.41       8.29
C      -2.66       6.86       8.08
C      -0.18       7.33       8.18
C       1.12       6.92       8.50
O      -0.32       2.41       9.02
O       1.76       2.97       9.74
O      -2.85       7.65       7.06
O      -3.54       6.48       8.88
N       2.22       7.84       8.43
