128

Cd       9.83       5.61       6.68
Cd      10.50       6.28      10.16
Cd       4.78       8.99       4.55
Cd       4.12       8.32       1.07
H       8.65       8.32       6.48
H      10.21       8.31       7.13
H      12.37       4.59       5.00
H       8.65       5.93       3.81
H       1.58       4.45       2.63
H       9.27       5.87       1.41
H      12.13       8.09       5.49
H       8.85       9.39       2.00
H      11.28       9.29       1.45
H       1.17       4.81       0.29
H      14.11       7.36      11.06
H       7.80       7.46      10.36
H       7.80       5.91       9.71
H       8.50       0.72       0.62
H       7.17       4.45       1.80
H       8.66      11.52       2.99
H       7.23       3.83       4.20
H       5.00       0.97       0.13
H       3.71       4.25       3.61
H       3.81       1.82       4.17
H       8.30      11.93       5.33
H       8.74       1.99       5.78
H       5.96       6.29       4.75
H       4.40       6.29       4.10
H       2.24      10.01       6.23
H       5.97       8.67       7.41
H      13.03      10.15       8.60
H       5.34       8.73       9.82
H       2.48       6.51       5.74
H       5.76       5.21       9.22
H       3.33       5.31       9.78
H      13.45       9.79      10.94
H       0.50       7.24       0.16
H       6.82       7.14       0.87
H       6.82       8.69       1.52
H       6.12      13.88      10.61
H       7.44      10.15       9.43
H       5.95       3.08       8.24
H       7.39      10.77       7.02
H       9.61      13.63      11.10
H      10.90      10.35       7.62
H      10.81      12.78       7.06
H       6.31       2.67       5.90
H       5.87      12.61       5.45
C       7.65       8.91       4.36
C      11.72       4.85       4.17
C       9.64       5.62       3.50
C      10.05       8.46       5.06
C       9.11       8.83       4.06
C      12.15       4.79       2.84
C      10.00       5.59       2.16
C      11.42       8.41       4.73
C       9.58       9.12       2.77
C      11.29       5.16       1.81
C      11.86       8.71       3.44
C      10.93       9.06       2.45
C       0.12       5.12       0.36
C       1.74       8.61       3.10
C       4.19       5.46       1.26
C       8.24       1.38       1.45
C       7.48       3.46       2.11
C       4.64       3.05       0.56
C       4.27       3.99       1.55
C       8.30       0.94       2.77
C       7.51       3.10       3.45
C       4.68       1.68       0.88
C       3.98       3.53       2.85
C       7.93       1.81       3.81
C       4.38       1.24       2.17
C       4.03       2.18       3.16
C       8.00      12.99       5.26
C       4.50      11.36       2.52
C       6.96       5.69       6.87
C       2.89       9.75       7.06
C       4.98       8.99       7.72
C       4.56       6.14       6.17
C       5.50       5.77       7.16
C       2.46       9.81       8.38
C       4.61       9.01       9.06
C       3.19       6.19       6.50
C       5.03       5.48       8.46
C       3.33       9.44       9.42
C       2.75       5.89       7.79
C       3.68       5.54       8.78
C      14.50       9.49      10.87
C      12.87       5.99       8.13
C      10.42       9.15       9.97
C       6.37      13.22       9.78
C       7.13      11.14       9.12
C       9.97      11.55      10.67
C      10.34      10.61       9.68
C       6.32      13.66       8.46
C       7.10      11.50       7.78
C       9.93      12.92      10.34
C      10.64      11.08       8.38
C       6.69      12.79       7.42
C      10.23      13.36       9.05
C      10.58      12.43       8.06
C       6.62       1.61       5.97
C      10.11       3.24       8.71
N      10.47       5.25       4.50
N       9.63       8.02       6.33
N       7.84       2.62       1.12
N       8.09       6.49      10.51
N       4.14       9.35       6.73
N       4.98       6.58       4.90
N       6.77      11.98      10.11
N       6.53       8.11       0.72
O       7.25       9.04       5.56
O       6.82       8.87       3.37
O       2.56       8.44       4.06
O       2.04       8.71       1.86
O       4.07       5.86       0.05
O       4.24       6.28       2.24
O       4.68      10.55       1.56
O       4.40      11.07       3.76
O       7.36       5.56       5.67
O       7.79       5.74       7.85
O      12.06       6.16       7.17
O      12.58       5.89       9.37
O      10.54       8.74      11.17
O      10.38       8.32       8.99
O       9.94       4.05       9.67
O      10.21       3.53       7.47
