14

H      -3.89       2.24      11.54
N      -3.76       0.17      11.25
N      -5.45      -0.10      13.39
H      -5.31      -2.17      13.11
O      -2.78      -2.01       9.93
C      -4.21       1.26      11.89
C      -4.15      -1.04      11.66
C      -3.61      -2.26      10.89
O      -4.01      -3.37      11.26
O      -6.43       2.08      14.71
O      -5.20       3.44      13.38
C      -5.00      -1.19      12.76
C      -5.06       1.11      12.98
C      -5.59       2.33      13.75
