20

N       4.96      12.61      16.31
N      12.09      12.88      16.45
H       5.07      13.60      14.50
H       5.06      11.55      18.09
H       7.52      13.79      14.49
H       7.53      11.61      18.23
H       9.52      13.83      14.51
H       9.52      11.82      18.35
H      11.99      13.85      14.63
H      12.00      11.93      18.28
C       5.65      13.20      15.32
C       5.65      12.05      17.32
C       7.04      13.29      15.32
C       7.04      12.09      17.39
C       7.78      12.74      16.38
C       9.26      12.81      16.42
C      10.00      13.40      15.38
C      10.01      12.29      17.49
C      11.39      13.41      15.43
C      11.40      12.33      17.47
