19

O       2.54      10.27       5.82
O       2.67      11.41       7.72
H       3.98      17.01       8.10
O       4.27      14.68       1.49
O       5.14      16.92       5.96
O       3.59      16.28       7.51
O       2.90      12.87       1.42
H       3.37      13.82       7.42
H       2.90      11.66       3.71
H       4.31      15.74       3.71
C       3.58      13.76       2.04
C       3.11      12.60       5.65
C       3.43      13.78       6.34
C       3.16      12.57       4.25
C       3.87      14.90       5.63
C       3.57      13.71       3.54
C       3.97      14.86       4.24
C       4.28      16.14       6.36
C       2.75      11.37       6.42
