186

C       9.84       3.40      35.58
C       9.84       2.39      34.65
C       9.87       1.17      35.33
C       9.87       2.83      36.85
C       9.87       3.55      38.08
C       9.88       2.92       1.02
C       9.89       1.40       2.67
C       9.90       2.67       3.25
C       9.89       3.61       2.24
C       9.89       0.16       3.36
C       9.89      37.23       2.74
C       9.89      35.57       1.21
C       9.91      34.99       2.49
C       9.91      36.01       3.42
C       9.89      34.89      38.34
C       9.88      35.48      37.04
C       9.88      36.99      35.40
C       9.86      35.72      34.81
C       9.87      34.79      35.83
C       9.87      38.23      34.71
C       9.82      38.18      33.28
C       1.01      38.02      32.53
C       0.95      37.96      31.13
C       9.72      38.06      30.44
C       8.54      38.24      31.20
C       8.59      38.29      32.61
C       9.66      37.99      29.02
C       8.93       0.59      28.27
C       8.85       0.51      26.87
C       9.50      37.81      26.17
C       0.24      36.86      26.92
C       0.32      36.95      28.32
C       9.91      33.42       0.06
C       1.15      32.73       0.04
C       1.18      31.33       0.17
C       9.98      30.58       0.31
C       8.75      31.29       0.31
C       8.72      32.69       0.19
C       0.02      29.16       0.48
C       0.97      28.56       1.34
C       1.02      27.17       1.50
C       0.12      26.32       0.82
C       9.15      26.97      38.32
C       9.11      28.36      38.15
C       9.92       0.21       4.78
C       8.72       0.32       5.52
C       8.75       0.41       6.92
C       9.98       0.41       7.63
C       1.18       0.29       6.87
C       1.15       0.19       5.47
C       0.02       0.54       9.05
C       0.97       1.40       9.67
C       1.01       1.54      11.07
C       0.11       0.83      11.89
C       9.15      38.34      11.28
C       9.11      38.19       9.88
C       9.82       4.97      38.01
C       8.59       5.65      38.13
C       1.00       5.72      37.84
C       0.95       7.13      37.78
C       9.72       7.82      37.91
C       8.54       7.05      38.08
C       9.66       9.24      37.86
C       8.94       9.93       0.48
C       8.87      11.33       0.43
C       9.52      12.09      37.75
C       0.24      11.36      36.78
C       0.32       9.96      36.84
C       0.16      24.85       0.99
C       9.39      37.72      24.69
C       9.41      13.58      37.68
C       0.15       0.98      13.37
C       0.40      22.77      38.17
C       1.59      22.08       0.20
C       1.65      20.67       0.34
C       0.49      19.88       0.08
C       9.27      20.60      38.12
C       9.24      22.00      37.96
C       0.45      18.44       0.20
C       1.55      17.65      38.22
C       1.47      16.25      38.31
C       0.27      15.59       0.34
C       9.14      16.39       0.62
C       9.22      17.80       0.54
C       8.00      18.63       0.72
C       7.99      19.83      38.03
C       0.40      38.13      15.47
C       1.59       0.15      16.13
C       1.65       0.29      17.54
C       0.49       0.03      18.32
C       9.26      38.07      17.65
C       9.24      37.92      16.24
C       0.44       0.16      19.76
C       1.54      38.18      20.60
C       1.45      38.29      22.00
C       0.25       0.34      22.61
C       9.13       0.61      21.80
C       9.21       0.51      20.39
C       7.99       0.68      19.56
C       7.99      37.99      18.41
H       0.72      11.85      36.01
H       0.84       9.47      36.11
H       8.33      11.83       1.14
H       8.46       9.44       1.25
H       7.63       7.51      38.16
H       7.72       5.12      38.25
H       1.83       7.65      37.67
H       1.91       5.25      37.75
H       9.81       4.40      35.35
H       9.82       2.53      33.64
H       9.92       0.84      37.35
H       9.85      37.56       0.72
H       9.91       4.62       2.38
H       9.92       2.90       4.25
H       7.82       0.34       5.04
H       7.87       0.52       7.42
H       2.03       0.12       4.96
H       2.09       0.26       7.34
H       9.92      35.86       4.43
H       9.93      34.00       2.72
H       9.84      35.50      33.82
H       9.85      33.78      35.69
H       2.03      33.29      38.30
H       2.09      30.87       0.14
H       7.81      33.17       0.21
H       7.87      30.79       0.44
H       8.42      28.75      37.50
H       8.48      26.38      37.81
H       1.72      26.77       2.14
H       1.63      29.14       1.87
H       7.71       0.05      33.13
H       7.62      38.29      30.74
H       0.84      36.23      28.82
H       0.72      36.09      26.44
H       8.31       1.21      26.36
H       8.45       1.37      28.74
H       1.83      37.85      30.61
H       1.91      37.95      33.00
H       1.62       1.95       9.10
H       1.71       2.17      11.47
H       8.43      37.55       9.48
H       8.49      37.82      11.85
H       0.97      24.56       1.68
H       9.21      24.54       1.45
H       8.34      37.81      24.41
H       9.74      36.74      24.35
H       9.20       1.44      13.69
H       0.95       1.66      13.67
H       9.76      13.94      36.71
H       8.35      13.86      37.77
H       8.37      22.48      37.73
H       2.42      18.05      37.85
H       2.28      15.68      38.05
H       8.25      15.94       0.87
H       2.42      22.64       0.40
H       8.00      19.04       1.73
H       7.08      18.04       0.59
H       7.12      20.47      38.23
H       7.90      19.43      37.02
H       1.14      24.53      37.53
H       9.89      13.90       1.33
H       8.36      37.70      15.76
H       2.40      37.80      20.21
H       2.26      38.04      22.57
H       8.24       0.87      22.25
H       2.42       0.35      15.57
H       7.99       1.69      19.14
H       7.07       0.56      20.15
H       7.12      38.18      17.78
H       7.89      36.98      18.83
H       1.13      37.52      13.71
H       9.88       1.36      24.28
N       9.89       1.49      36.64
N       9.88       1.60       1.33
N       9.88      36.91       1.42
N       9.89      36.79      36.73
N       2.84      20.08       0.84
N       0.32      24.18      38.05
N       0.22      14.18       0.40
N       2.84       0.78      18.13
N       0.31      38.02      14.07
N       0.21       0.42      24.02
O       3.83      20.31       0.10
O       3.11      20.48       2.01
O       3.82       0.04      17.90
O       3.11       1.95      17.73
