23

C       8.30       9.53       6.87
H       7.99      12.14       6.59
H       7.57       9.71       4.77
O       6.09       7.48       5.34
O       3.81       7.48       5.34
H       2.75       9.62       5.22
H       2.71      12.02       5.19
H       7.56      12.10       4.76
H       8.08       9.97       7.86
H       8.12       8.43       6.92
H       9.37       9.70       6.62
O       5.99      14.23       5.34
O       3.71      14.23       5.34
C       4.95       8.08       5.40
C       5.98      10.19       6.15
C       4.88       9.48       5.65
C       3.66      10.15       5.47
C       3.63      11.52       5.46
C       4.82      12.23       5.65
C       5.95      11.56       6.14
C       7.40      11.67       5.77
C       7.42      10.15       5.78
C       4.85      13.62       5.40
