23

C       1.33       3.57       6.93
C      -1.45       7.99       2.75
C       1.49       8.09       2.91
H      -1.28       3.93       6.68
N       1.43       5.53       5.33
N      -1.41       5.53       5.33
H       2.39       3.77       7.06
H       0.87       3.55       7.93
H       1.19       2.59       6.44
H      -1.11       5.81       2.63
H      -1.05       8.88       3.26
H      -1.33       8.14       1.66
H      -2.53       7.90       2.99
H       1.26       5.90       2.65
H       1.12       8.90       3.58
H       2.57       7.99       3.09
H       1.32       8.38       1.85
C       0.72       6.49       4.66
C       0.70       4.64       6.10
C      -0.72       4.65       6.09
C      -0.69       6.48       4.65
C      -0.73       6.70       3.17
C       0.81       6.75       3.20
