11

C       6.63       8.68       1.20
C       6.65       5.05       1.71
Cu       8.04       6.54      -0.36
O       7.80       5.25       1.16
O       8.79       7.78      -1.76
C       9.82       4.38      -1.15
C       7.98       4.56      -2.58
C      10.06       8.00      -1.59
N       7.80       8.07       0.92
N       8.65       4.98      -1.49
C       8.92       8.46       1.58
