29

N       8.02       1.70       9.44
N       2.10       9.15       9.90
C       7.89       2.75       8.60
H       8.80       3.05       8.08
C       5.55       3.01       9.11
H       6.64       4.25       7.71
H       7.06       0.45      10.80
C       4.21       3.66       8.90
H       4.84       1.56      10.55
H       4.26       4.39       8.08
H       3.50       2.88       8.58
C       4.43       5.59      10.62
C       3.64       6.85      10.37
C       2.89       7.45      11.39
C       3.58       7.44       9.10
H       3.67       3.58      11.00
C       2.15       8.59      11.13
H       2.60       4.56      10.01
H       5.39       5.65      10.09
C       2.81       8.58       8.90
H       4.67       5.54      11.69
H       2.76       9.07       7.93
H       2.90       7.03      12.40
H       4.14       7.03       8.26
H       1.59       9.11      11.91
C       6.93       1.30      10.13
C       5.70       1.93       9.99
C       6.69       3.42       8.41
C       3.65       4.31      10.18
