13

O       1.61       7.39       5.59
O      -0.82       2.52       9.56
H      -1.55       5.10       8.87
H      -0.54       7.10       7.26
O       1.22       1.94       8.70
C      -0.60       5.12       8.34
O       3.27       5.89       6.06
C       0.27       2.75       8.91
C       0.33       4.10       8.34
O       1.42       4.45       7.57
C      -0.09       6.14       7.51
C       1.13       5.70       7.06
C       2.10       6.35       6.17
