16

V       0.52       4.31       9.83
V       4.00       4.61       9.93
O       2.43       5.27      10.13
O      -1.04       3.66       9.63
C       2.48       3.40       7.61
C       2.47       2.30      11.14
C      -1.02       5.49      12.17
C      -1.00       6.66       8.65
O       4.76       5.35      11.62
O       4.78       6.19       8.94
O       3.59       2.89      10.88
O       1.31       3.57       8.14
O       0.11       6.04       8.88
O       1.30       2.74      10.82
O       0.10       5.20      11.58
O       3.61       3.73       8.18
