26

Ni       0.38      -0.17      27.00
Ni      -0.02      -0.65      30.05
Ni       3.01      -0.23      29.07
Ni      -2.75      -0.30      28.07
C       1.53       2.00      30.20
C       3.13       0.39      26.14
C       2.26      -1.33      31.65
C      -1.45      -2.59      26.89
H       1.40      -2.04      28.46
H      -0.92       1.31      28.62
C      -1.85       0.84      25.52
C      -2.77      -1.14      30.94
O       1.30      -1.06      28.58
O       2.01      -0.17      25.74
O       3.78      -0.13      27.14
O      -0.36      -2.03      26.37
O      -2.65      -0.05      26.06
O       2.11       1.60      29.09
O       1.00      -1.64      31.51
O      -0.93       0.33      28.49
O      -0.58       0.58      25.42
O      -1.62      -0.63      31.33
O      -3.45      -0.53      30.01
O      -1.94      -2.14      28.02
O       0.63       1.21      30.78
O       2.73      -0.28      31.06
