26

Ni       7.89      22.01      19.76
Ni       7.88      20.66      22.58
Ni      10.74      20.76      21.13
Ni       5.04      21.31      21.02
O       8.83      20.56      20.83
O       9.43      22.19      18.45
O      10.95      22.58      20.11
O       6.99      20.57      18.54
O       4.90      22.24      19.19
O      10.81      21.72      22.93
O       9.11      19.45      23.70
O       6.79      21.98      21.46
O       6.82      23.42      18.81
O       6.48      20.63      24.10
O       4.83      20.06      22.64
O       6.04      19.70      20.34
O       8.68      22.33      23.40
O      10.73      18.97      22.08
H       8.68      19.67      20.43
H       6.73      22.89      21.86
C       9.95      22.64      23.28
C      10.55      22.75      18.86
C      10.11      18.70      23.23
C       6.29      19.61      19.08
C       5.23      20.28      23.87
C       5.50      23.37      18.85
