24

P      12.63       4.32      10.18
P      12.24       2.13       8.13
N      14.57       2.60       9.37
N      16.64       1.62       9.16
H      14.31       1.74       9.45
H      14.72       2.90      10.20
O      12.32       3.36      11.31
O      11.50       5.06       9.55
C      16.20       3.48       7.75
C      13.41       3.33       8.87
O      11.88       1.18       9.26
O      13.02       1.43       7.03
H      13.71       3.94       8.16
C      17.91       1.54       8.65
C      18.35       2.38       7.73
C      15.77       2.56       8.74
H      18.48       0.88       8.97
O      13.74       5.27      10.74
O      11.06       2.92       7.61
H      19.22       2.31       7.40
C      17.48       3.36       7.25
H      17.77       3.95       6.60
H      15.63       4.14       7.43
H      13.77       5.96      10.30
