25

P      18.56      16.29      19.21
P      18.74      14.33      21.58
N      20.69      14.70      19.68
N      22.26      14.83      21.46
H      20.33      13.90      19.46
H      20.81      15.14      18.91
O      17.92      15.25      22.44
H      22.65      13.52      18.51
C      19.64      15.42      20.40
C      21.93      14.43      20.17
O      19.49      17.41      18.59
C      22.87      13.78      19.37
O      17.81      13.41      20.70
H      25.32      13.76      21.50
O      19.73      13.45      22.26
H      23.75      14.84      22.82
C      24.14      13.53      19.88
O      17.44      16.92      20.00
H      20.08      16.11      20.94
O      18.17      15.34      18.12
H      24.77      13.10      19.35
C      24.47      13.92      21.17
C      23.53      14.57      21.96
H      19.06      17.84      18.03
H      17.18      13.85      20.40
