24

P      19.12      12.03      15.40
P      16.56      12.33      13.83
O      20.00      12.58      14.32
N      18.20      10.19      13.63
N      18.43       8.14      12.64
H      19.05      10.41      13.45
H      17.73      10.36      12.88
C      17.74      11.14      14.60
O      18.53      13.01      16.36
C      17.95       8.14      14.95
C      18.20       8.84      13.76
O      17.37      13.39      13.11
O      15.75      12.83      15.01
C      18.33       6.08      13.74
O      15.70      11.52      12.87
O      19.95      10.96      16.20
C      18.53       6.82      12.64
C      18.02       6.78      14.92
H      17.26      10.65      15.29
H      17.75       8.59      15.74
H      17.86       6.30      15.70
H      18.39       5.15      13.73
H      18.74       6.38      11.84
H      19.75      10.99      16.99
