24

P       8.72      12.32      11.11
P       8.00      14.85       9.70
N      10.49      13.91       9.77
N      12.68      14.19       9.15
H      10.32      14.45       9.08
H      10.51      13.07       9.45
C       9.32      13.97      10.63
O       7.52      12.50      11.96
O       9.91      11.66      11.91
C      13.54      14.65      11.67
O       8.58      11.51       9.85
H       9.53      14.48      11.43
O       7.82      14.04       8.43
O       8.55      16.22       9.40
O       6.77      14.88      10.57
C      11.75      14.19      10.16
C      12.19      14.45      11.48
H      11.59      14.48      12.19
C      14.02      14.40       9.44
H      13.85      14.80      12.53
H      15.36      14.78      10.80
H      14.64      14.38       8.74
H       9.97      12.00      12.65
C      14.45      14.63      10.64
