24

P      11.01      20.08       1.19
P      11.76      21.33      -1.47
N       9.35      20.30      -0.92
N       7.27      20.00      -1.79
C       7.54      21.85      -0.31
H       9.62      20.16      -1.77
H       9.31      19.49      -0.53
O      11.26      18.67       0.72
O       9.76      20.02       2.15
C      10.43      21.03      -0.25
C       6.21      22.09      -0.46
O      11.16      22.22      -2.55
O      12.89      21.99      -0.72
O      12.09      19.95      -2.02
O      12.13      20.84       1.84
C       8.09      20.72      -1.00
C       5.41      21.33      -1.26
C       5.94      20.32      -1.92
H      10.08      21.89       0.06
H       5.40      19.82      -2.49
H       4.51      21.53      -1.34
H       8.08      22.39       0.23
H       5.84      22.81      -0.00
H       9.64      20.76       2.48
