16

V       6.66       9.20       9.82
C       4.72      11.21      11.15
C       4.69      10.12       7.60
C       8.17       6.88       8.60
C       8.20       7.99      12.14
V       3.18       8.90       9.91
O       3.60      10.63      10.86
O       5.86       9.95       8.13
O       7.05       7.47       8.87
O       5.90      10.78      10.81
O       7.09       8.31      11.57
O       3.57       9.79       8.17
O       4.75       8.24      10.11
O       9.38       8.16      11.60
O       9.34       7.32       8.93
O       8.22       9.86       9.62
