10

O       3.96       6.31       4.59
O       3.18       8.14       5.66
C       3.35       6.90       5.58
C       2.84       6.01       6.66
O       1.97       4.40       8.77
O       2.75       2.56       7.70
H       2.25       6.48       7.45
C       2.58       3.81       7.78
C       3.10       4.70       6.70
H       3.68       4.23       5.91
