992

H      28.17       8.77      10.42
H      27.25       9.20      11.86
H      27.23       7.69      13.94
H      28.07       6.16      13.91
H      28.55       9.87      14.02
H       0.40       9.87      14.01
H       0.79       6.12      13.91
H       1.67       7.64      13.96
H      29.38       5.46      11.73
H      29.41       6.54      10.35
H       1.67       9.17      11.93
H       0.78       8.73      10.46
H       0.77      20.17      10.43
H       1.70      19.74      11.87
H       1.72      21.25      13.94
H       0.87      22.78      13.91
H       0.39      19.08      14.03
H      28.55      19.07      14.01
H      28.15      22.82      13.91
H      27.27      21.31      13.96
H      29.48      23.48      11.73
H      29.46      22.40      10.35
H      27.28      19.77      11.93
H      28.16      20.21      10.46
H      20.18      28.17      29.72
H      19.74      27.25      31.16
H      21.25      27.23      33.24
H      22.78      28.07      33.21
H      19.07      28.55      33.32
H      19.07       0.40      33.30
H      22.82       0.79      33.21
H      21.31       1.67      33.25
H      23.48      29.38      31.03
H      22.41      29.40      29.65
H      19.78       1.67      31.22
H      20.21       0.78      29.75
H       8.77       0.78      29.72
H       9.20       1.70      31.16
H       7.70       1.72      33.23
H       6.16       0.88      33.21
H       9.87       0.40      33.32
H       9.88      28.55      33.30
H       6.13      28.15      33.21
H       7.64      27.27      33.25
H       5.46      29.48      31.03
H       6.54      29.46      29.65
H       9.17      27.28      31.22
H       8.73      28.16      29.75
H       0.74       8.85      28.03
H       1.68       9.15      26.58
H       1.71       7.47      24.66
H       0.83       5.95      24.80
H       0.39       9.63      24.32
H      28.56       9.66      24.35
H      28.21       5.88      24.75
H      27.26       7.35      24.62
H      29.47       5.43      27.05
H      29.43       6.64      28.31
H      27.25       9.09      26.47
H      28.13       8.80      27.98
H      28.20      20.09      28.03
H      27.26      19.79      26.58
H      27.24      21.48      24.66
H      28.11      23.00      24.80
H      28.55      19.32      24.32
H       0.39      19.29      24.35
H       0.73      23.07      24.76
H       1.68      21.60      24.63
H      29.39      23.51      27.05
H      29.43      22.30      28.31
H       1.69      19.86      26.47
H       0.82      20.14      27.98
H       8.85      28.20       8.74
H       9.15      27.26       7.29
H       7.47      27.24       5.37
H       5.95      28.11       5.50
H       9.63      28.55       5.03
H       9.67       0.39       5.07
H       5.88       0.73       5.46
H       7.35       1.68       5.33
H       5.43      29.39       7.75
H       6.64      29.43       9.02
H       9.09       1.69       7.18
H       8.80       0.82       8.69
H      20.09       0.74       8.75
H      19.79       1.68       7.29
H      21.47       1.70       5.37
H      22.99       0.83       5.50
H      19.31       0.39       5.03
H      19.27      28.55       5.07
H      23.06      28.20       5.46
H      21.59      27.26       5.33
H      23.51      29.46       7.76
H      22.30      29.42       9.02
H      19.85      27.25       7.18
H      20.14      28.12       8.69
H       3.08       3.20      11.22
H       1.48       4.53      12.34
H       6.66       4.57      10.09
H       7.96       2.97       8.92
H       4.44       1.46       7.12
H       2.98       7.95      10.34
H       3.16       3.04       8.31
H       4.58       6.61       9.25
H      25.86      25.74      11.22
H      27.46      24.41      12.34
H      22.28      24.37      10.09
H      20.98      25.96       8.92
H      24.50      27.47       7.11
H      25.97      20.98      10.35
H      25.78      25.89       8.30
H      24.36      22.32       9.26
H      25.75       3.08      30.52
H      24.41       1.48      31.64
H      24.38       6.66      29.39
H      25.97       7.96      28.21
H      27.48       4.44      26.42
H      20.99       2.98      29.64
H      25.90       3.16      27.61
H      22.33       4.58      28.55
H       3.20      25.86      30.53
H       4.54      27.46      31.64
H       4.57      22.28      29.39
H       2.97      20.99      28.21
H       1.46      24.51      26.42
H       7.95      25.97      29.64
H       3.04      25.79      27.61
H       6.61      24.36      28.55
H      25.75      25.68      27.58
H      27.36      24.42      26.41
H      22.27      24.33      28.51
H      20.95      25.97      29.57
H      24.35      27.34      31.68
H      26.03      20.91      28.35
H      25.67      25.70      30.60
H      24.41      22.18      29.52
H       3.19       3.27      27.58
H       1.58       4.52      26.40
H       6.67       4.61      28.50
H       7.99       2.98      29.56
H       4.59       1.60      31.67
H       2.91       8.04      28.35
H       3.28       3.24      30.60
H       4.53       6.76      29.51
H       3.27      25.75       8.28
H       4.52      27.36       7.11
H       4.61      22.27       9.21
H       2.97      20.95      10.27
H       1.60      24.35      12.37
H       8.03      26.03       9.06
H       3.24      25.67      11.30
H       6.76      24.41      10.22
H      25.68       3.19       8.28
H      24.42       1.57       7.11
H      24.33       6.66       9.21
H      25.97       7.99      10.26
H      27.34       4.59      12.38
H      20.91       2.91       9.06
H      25.70       3.27      11.30
H      22.18       4.53      10.22
H      27.60      15.56      10.26
H      27.60      17.89      10.62
H      27.52      13.69      12.20
H      27.51      11.37      12.57
H       1.34      11.06      10.62
H       1.43      17.57      12.58
H       1.34      13.38      10.27
H       1.42      15.25      12.20
H      13.39      27.60      29.56
H      11.06      27.60      29.91
H      15.25      27.53      31.49
H      17.57      27.52      31.87
H      17.89       1.34      29.91
H      11.37       1.43      31.86
H      15.56       1.34      29.56
H      13.70       1.42      31.49
H       1.38      15.50      27.81
H       1.39      17.85      27.60
H       1.42      13.61      25.92
H       1.41      11.27      25.68
H      27.56      11.10      27.60
H      27.54      17.68      25.68
H      27.57      13.45      27.81
H      27.53      15.33      25.92
H      15.50      27.57       8.54
H      17.84      27.55       8.32
H      13.62      27.53       6.64
H      11.27      27.54       6.40
H      11.10       1.38       8.32
H      17.67       1.41       6.40
H      13.44       1.37       8.54
H      15.33       1.41       6.64
H       1.22       6.38      20.18
H       1.30       6.43      22.54
H      29.29       9.65      18.51
H      29.35       9.86      16.18
H      29.43       5.65      15.79
H      27.55       8.53      22.61
H      29.41       5.45      18.16
H      27.50       8.50      20.25
H      27.72      22.57      20.19
H      27.64      22.52      22.54
H      29.56      19.30      18.51
H      29.51      19.09      16.18
H      29.43      23.30      15.79
H       1.40      20.43      22.61
H      29.45      23.50      18.16
H       1.45      20.45      20.25
H      22.55       1.23       0.89
H      22.51       1.30       3.25
H      19.29      29.30      37.81
H      19.08      29.36      35.47
H      23.29      29.43      35.09
H      20.41      27.55       3.32
H      23.49      29.41      37.46
H      20.43      27.50       0.95
H       6.39      27.72       0.89
H       6.43      27.64       3.25
H       9.65      29.57      37.80
H       9.86      29.51      35.47
H       5.65      29.43      35.09
H       8.53       1.40       3.32
H       5.45      29.45      37.45
H       8.51       1.45       0.95
H      13.25      23.77      21.42
H      12.33      24.20      22.86
H      12.31      22.69      24.94
H      13.15      21.16      24.91
H      13.63      24.87      25.02
H      15.40      24.87      25.01
H      15.79      21.12      24.91
H      16.67      22.64      24.96
H      14.47      20.46      22.73
H      14.49      21.54      21.35
H      16.67      24.17      22.93
H      15.78      23.73      21.46
H      15.77       5.26      21.43
H      16.70       4.82      22.87
H      16.72       6.33      24.94
H      15.87       7.87      24.91
H      15.39       4.16      25.03
H      13.63       4.15      25.01
H      13.23       7.91      24.91
H      12.35       6.39      24.96
H      14.56       8.56      22.73
H      14.54       7.49      21.35
H      12.36       4.86      22.93
H      13.25       5.29      21.46
H       5.26      13.25       2.13
H       4.82      12.33       3.57
H       6.33      12.31       5.65
H       7.86      13.15       5.62
H       4.16      13.64       5.73
H       4.15      15.40       5.71
H       7.90      15.79       5.62
H       6.39      16.67       5.66
H       8.57      14.46       3.44
H       7.49      14.49       2.06
H       4.86      16.67       3.63
H       5.30      15.78       2.16
H      23.77      15.78       2.13
H      24.20      16.70       3.57
H      22.70      16.72       5.64
H      21.16      15.88       5.62
H      24.87      15.40       5.73
H      24.88      13.63       5.71
H      21.13      13.24       5.62
H      22.64      12.36       5.66
H      20.46      14.56       3.44
H      21.54      14.54       2.06
H      24.17      12.36       3.63
H      23.73      13.25       2.16
H      15.74      23.85       0.44
H      16.68      24.15      37.58
H      16.71      22.47      35.66
H      15.83      20.95      35.80
H      15.39      24.63      35.32
H      13.64      24.66      35.35
H      13.29      20.88      35.75
H      12.34      22.35      35.62
H      14.55      20.43      38.05
H      14.51      21.64       0.72
H      12.33      24.09      37.47
H      13.21      23.80       0.39
H      13.28       5.17       0.44
H      12.35       4.87      37.58
H      12.32       6.56      35.66
H      13.19       8.08      35.80
H      13.64       4.40      35.32
H      15.39       4.37      35.35
H      15.73       8.15      35.76
H      16.68       6.69      35.63
H      14.47       8.60      38.05
H      14.51       7.38       0.72
H      16.69       4.94      37.47
H      15.82       5.23       0.39
H      23.85      13.28      19.74
H      24.15      12.35      18.29
H      22.47      12.32      16.37
H      20.95      13.19      16.50
H      24.63      13.64      16.03
H      24.67      15.39      16.07
H      20.88      15.73      16.46
H      22.35      16.68      16.33
H      20.43      14.47      18.75
H      21.64      14.51      20.02
H      24.09      16.69      18.18
H      23.80      15.82      19.69
H       5.17      15.74      19.75
H       4.87      16.68      18.29
H       6.55      16.70      16.37
H       8.07      15.83      16.50
H       4.39      15.39      16.03
H       4.36      13.64      16.07
H       8.14      13.29      16.46
H       6.67      12.34      16.33
H       8.59      14.54      18.76
H       7.38      14.50      20.02
H       4.93      12.33      18.18
H       5.22      13.20      19.69
H      18.08      18.20      22.22
H      16.48      19.53      23.34
H      21.66      19.57      21.09
H      22.96      17.97      19.92
H      19.44      16.46      18.12
H      17.98      22.95      21.34
H      18.16      18.04      19.31
H      19.58      21.61      20.25
H      10.94      10.82      22.22
H      12.54       9.49      23.34
H       7.36       9.45      21.09
H       6.06      11.05      19.92
H       9.58      12.56      18.11
H      11.05       6.07      21.35
H      10.86      10.97      19.30
H       9.44       7.40      20.26
H      10.83      18.08       2.93
H       9.49      16.48       4.04
H       9.46      21.66       1.80
H      11.05      22.96       0.62
H      12.57      19.44      37.42
H       6.07      17.98       2.05
H      10.99      18.16       0.02
H       7.41      19.58       0.96
H      18.20      10.95       2.93
H      19.54      12.54       4.05
H      19.57       7.36       1.80
H      17.97       6.07       0.62
H      16.46       9.59      37.42
H      22.95      11.05       2.05
H      18.04      10.87       0.02
H      21.61       9.45       0.96
H      10.83      10.76      38.58
H      12.44       9.51      37.41
H       7.36       9.41       0.92
H       6.03      11.05       1.98
H       9.43      12.42       4.09
H      11.12       5.99       0.76
H      10.75      10.78       3.01
H       9.49       7.26       1.93
H      18.19      18.27      38.58
H      16.58      19.52      37.40
H      21.67      19.61       0.91
H      22.99      17.98       1.97
H      19.59      16.60       4.08
H      17.91      23.04       0.76
H      18.28      18.24       3.01
H      19.53      21.76       1.92
H      18.27      10.83      19.28
H      19.52      12.44      18.11
H      19.61       7.35      20.21
H      17.97       6.03      21.27
H      16.60       9.44      23.37
H      23.03      11.12      20.06
H      18.24      10.75      22.30
H      21.76       9.49      21.22
H      10.76      18.19      19.28
H       9.51      16.57      18.11
H       9.41      21.66      20.21
H      11.05      22.99      21.26
H      12.43      19.59      23.38
H       5.99      17.91      20.06
H      10.79      18.27      22.30
H       7.26      19.53      21.22
H      12.69       0.64      21.26
H      12.69       2.97      21.62
H      12.61      28.69      23.20
H      12.60      26.37      23.57
H      16.34      26.06      21.62
H      16.43       2.65      23.58
H      16.34      28.38      21.27
H      16.42       0.33      23.20
H      28.39      12.68       1.97
H      26.06      12.69       2.32
H       0.33      12.61       3.90
H       2.65      12.60       4.28
H       2.97      16.34       2.32
H      26.37      16.43       4.27
H       0.64      16.34       1.96
H      28.70      16.42       3.90
H      16.38       0.58       0.22
H      16.39       2.93       0.00
H      16.42      28.61      36.92
H      16.41      26.27      36.68
H      12.64      26.10       0.01
H      12.62       2.76      36.68
H      12.65      28.45       0.22
H      12.61       0.41      36.92
H       0.58      12.65      19.54
H       2.93      12.64      19.32
H      28.62      12.61      17.64
H      26.27      12.62      17.40
H      26.10      16.38      19.32
H       2.76      16.41      17.40
H      28.44      16.37      19.54
H       0.41      16.41      17.64
H      16.22      21.38      31.18
H      16.30      21.43      33.54
H      14.38      24.65      29.51
H      14.44      24.86      27.18
H      14.51      20.65      26.79
H      12.63      23.53      33.61
H      14.49      20.45      29.16
H      12.58      23.50      31.25
H      12.80       7.65      31.19
H      12.73       7.60      33.54
H      14.65       4.39      29.51
H      14.59       4.17      27.18
H      14.51       8.38      26.79
H      16.40       5.51      33.61
H      14.53       8.58      29.16
H      16.45       5.54      31.25
H       7.64      16.23      11.89
H       7.59      16.30      14.25
H       4.37      14.38      10.22
H       4.16      14.44       7.88
H       8.38      14.52       7.50
H       5.49      12.63      14.32
H       8.57      14.49       9.87
H       5.52      12.58      11.95
H      21.39      12.80      11.89
H      21.43      12.73      14.25
H      24.65      14.65      10.21
H      24.86      14.59       7.88
H      20.65      14.51       7.50
H      23.53      16.40      14.32
H      20.45      14.54       9.86
H      23.51      16.45      11.95
C      29.42       9.46      12.06
C      29.43       9.35      13.62
C      28.16       8.70      11.52
C      28.09       7.20      11.98
C      28.12       7.19      13.55
C      29.41       7.87      14.16
C       0.77       7.16      13.56
C       0.80       7.17      11.99
C      29.40       6.51      11.44
C       0.76       8.68      11.55
C      29.44      19.48      12.07
C      29.43      19.59      13.63
C       0.79      20.24      11.52
C       0.85      21.74      11.98
C       0.82      21.75      13.56
C      29.45      21.07      14.16
C      28.18      21.79      13.57
C      28.14      21.77      11.99
C      29.46      22.43      11.45
C      28.18      20.26      11.55
C      19.48      29.42      31.36
C      19.59      29.43      32.92
C      20.24      28.16      30.82
C      21.74      28.09      31.28
C      21.75      28.12      32.85
C      21.07      29.41      33.46
C      21.79       0.77      32.86
C      21.77       0.80      31.29
C      22.43      29.40      30.74
C      20.27       0.76      30.85
C       9.46      29.44      31.36
C       9.36      29.44      32.92
C       8.71       0.79      30.81
C       7.20       0.86      31.27
C       7.19       0.82      32.85
C       7.87      29.45      33.46
C       7.16      28.18      32.86
C       7.17      28.14      31.29
C       6.51      29.46      30.74
C       8.68      28.18      30.85
C      29.42       9.39      26.33
C      29.43       9.16      24.77
C       0.76       8.69      26.95
C       0.83       7.15      26.64
C       0.80       7.01      25.07
C      29.44       7.64      24.39
C      28.19       6.94      25.03
C      28.13       7.10      26.60
C      29.45       6.51      27.22
C      28.16       8.64      26.89
C      29.44      19.55      26.33
C      29.43      19.79      24.77
C      28.18      20.25      26.95
C      28.11      21.79      26.64
C      28.14      21.94      25.07
C      29.42      21.31      24.39
C       0.76      22.01      25.04
C       0.81      21.85      26.60
C      29.41      22.44      27.23
C       0.79      20.30      26.90
C       9.39      29.44       7.04
C       9.16      29.43       5.48
C       8.69      28.18       7.66
C       7.15      28.11       7.34
C       7.01      28.14       5.77
C       7.64      29.42       5.09
C       6.94       0.76       5.74
C       7.10       0.81       7.31
C       6.51      29.41       7.93
C       8.64       0.79       7.60
C      19.55      29.42       7.04
C      19.78      29.43       5.49
C      20.25       0.76       7.66
C      21.79       0.83       7.35
C      21.93       0.80       5.78
C      21.30      29.44       5.10
C      22.00      28.18       5.74
C      21.84      28.13       7.31
C      22.43      29.44       7.93
C      20.30      28.15       7.60
C       2.01       6.40      11.45
C       2.99       6.96      10.58
C       3.96       6.18       9.94
C       3.98       4.78      10.13
C       3.09       4.21      11.06
C       2.14       5.01      11.72
C       4.79       3.94       9.32
C       6.19       3.93       9.44
C       6.96       2.98       8.74
C       6.35       2.00       7.90
C       4.95       2.12       7.72
C       4.18       3.05       8.42
C      26.94      22.54      11.45
C      25.96      21.97      10.58
C      24.99      22.76       9.94
C      24.96      24.16      10.13
C      25.86      24.73      11.06
C      26.81      23.93      11.72
C      24.15      24.99       9.32
C      22.75      25.00       9.44
C      21.98      25.96       8.74
C      22.59      26.93       7.90
C      23.99      26.82       7.71
C      24.76      25.88       8.42
C      22.54       2.01      30.75
C      21.98       2.98      29.88
C      22.77       3.96      29.23
C      24.16       3.98      29.43
C      24.73       3.08      30.36
C      23.93       2.14      31.02
C      25.00       4.79      28.62
C      25.01       6.19      28.74
C      25.97       6.96      28.04
C      26.94       6.35      27.19
C      26.83       4.95      27.01
C      25.89       4.18      27.72
C       6.40      26.94      30.75
C       6.96      25.96      29.88
C       6.17      24.99      29.23
C       4.78      24.96      29.43
C       4.21      25.86      30.36
C       5.01      26.81      31.02
C       3.94      24.16      28.62
C       3.93      22.75      28.74
C       2.98      21.99      28.04
C       2.00      22.59      27.20
C       2.11      24.00      27.02
C       3.05      24.77      27.73
C      26.90      22.51      27.24
C      25.98      21.90      28.14
C      25.01      22.65      28.83
C      24.93      24.04      28.66
C      25.78      24.66      27.73
C      26.73      23.91      27.03
C      24.09      24.85      29.47
C      22.71      24.93      29.22
C      21.93      25.92      29.84
C      22.49      26.87      30.74
C      23.87      26.70      31.05
C      24.66      25.72      30.41
C       2.04       6.43      27.24
C       2.96       7.04      28.13
C       3.93       6.29      28.83
C       4.01       4.90      28.66
C       3.16       4.28      27.72
C       2.21       5.03      27.02
C       4.85       4.09      29.46
C       6.24       4.01      29.21
C       7.01       3.02      29.84
C       6.45       2.07      30.74
C       5.07       2.24      31.04
C       4.28       3.22      30.41
C       6.43      26.90       7.95
C       7.04      25.98       8.84
C       6.29      25.01       9.53
C       4.90      24.93       9.36
C       4.28      25.78       8.42
C       5.04      26.73       7.72
C       4.09      24.09      10.16
C       4.01      22.71       9.91
C       3.02      21.93      10.54
C       2.07      22.49      11.44
C       2.24      23.87      11.74
C       3.22      24.66      11.11
C      22.51       2.03       7.95
C      21.90       2.96       8.84
C      22.65       3.93       9.54
C      24.05       4.01       9.36
C      24.66       3.15       8.43
C      23.91       2.20       7.73
C      24.85       4.85      10.16
C      24.93       6.23       9.91
C      25.92       7.01      10.54
C      26.87       6.45      11.44
C      26.70       5.07      11.74
C      25.73       4.28      11.11
C      29.47      18.01      11.65
C       0.64      17.19      12.05
C       0.65      15.80      11.81
C      29.48      15.18      11.18
C      28.42      15.98      10.72
C      28.42      17.37      10.94
C      29.38      13.76      11.18
C      28.29      13.14      11.81
C      28.30      11.75      12.04
C      29.39      10.93      11.65
C       0.52      11.57      10.94
C       0.53      12.96      10.72
C      10.93      29.47      30.94
C      11.76       0.65      31.34
C      13.14       0.65      31.10
C      13.77      29.48      30.47
C      12.96      28.41      30.01
C      11.57      28.42      30.23
C      15.18      29.38      30.47
C      15.81      28.29      31.10
C      17.19      28.30      31.34
C      18.01      29.39      30.95
C      17.37       0.52      30.23
C      15.99       0.53      30.01
C      29.42      18.05      26.61
C      28.33      17.26      26.16
C      28.31      15.86      26.31
C      29.41      15.18      26.90
C       0.57      15.96      27.38
C       0.56      17.36      27.25
C      29.46      13.76      26.90
C       0.63      13.09      26.31
C       0.62      11.69      26.17
C      29.44      10.89      26.61
C      28.38      11.59      27.25
C      28.38      12.99      27.38
C      18.05      29.44       7.33
C      17.25       0.61       6.89
C      15.85       0.63       7.03
C      15.18      29.46       7.62
C      15.95      28.38       8.10
C      17.35      28.38       7.97
C      13.76      29.40       7.62
C      13.09      28.31       7.03
C      11.69      28.33       6.88
C      10.89      29.42       7.32
C      11.59       0.56       7.97
C      12.99       0.56       8.10
C      29.39       7.49      22.87
C      28.31       8.06      22.13
C      28.28       8.04      20.72
C      29.31       7.43      19.98
C       0.45       6.81      20.69
C       0.49       6.85      22.10
C      29.34       7.53      18.56
C      29.32       8.79      17.94
C      29.36       8.91      16.54
C      29.40       7.77      15.69
C      29.41       6.51      16.34
C      29.40       6.38      17.74
C      29.47      21.45      22.87
C       0.63      20.90      22.13
C       0.66      20.91      20.73
C      29.55      21.52      19.98
C      28.50      22.14      20.69
C      28.45      22.10      22.10
C      29.52      21.42      18.57
C      29.54      20.16      17.95
C      29.50      20.04      16.55
C      29.46      21.17      15.69
C      29.45      22.44      16.34
C      29.46      22.57      17.74
C      21.44      29.39       3.58
C      20.88      28.32       2.84
C      20.89      28.28       1.43
C      21.50      29.31       0.69
C      22.12       0.45       1.40
C      22.08       0.49       2.81
C      21.41      29.34      37.86
C      20.15      29.32      37.24
C      20.03      29.36      35.84
C      21.17      29.40      34.98
C      22.43      29.42      35.64
C      22.55      29.40      37.04
C       7.50      29.47       3.57
C       8.06       0.63       2.84
C       8.05       0.66       1.43
C       7.44      29.55       0.69
C       6.82      28.50       1.40
C       6.86      28.46       2.80
C       7.53      29.53      37.86
C       8.80      29.55      37.24
C       8.92      29.51      35.84
C       7.78      29.47      34.98
C       6.52      29.45      35.63
C       6.39      29.46      37.04
C      14.50      24.46      23.06
C      14.51      24.35      24.62
C      13.24      23.70      22.52
C      13.17      22.20      22.98
C      13.20      22.19      24.55
C      14.49      22.87      25.16
C      15.77      22.16      24.56
C      15.80      22.17      22.99
C      14.48      21.51      22.44
C      15.76      23.68      22.55
C      14.52       4.56      23.07
C      14.52       4.67      24.63
C      15.79       5.32      22.52
C      15.85       6.82      22.98
C      15.82       6.84      24.56
C      14.53       6.16      25.16
C      13.26       6.87      24.57
C      13.22       6.85      22.99
C      14.54       7.51      22.45
C      13.26       5.35      22.55
C       4.56      14.50       3.77
C       4.67      14.51       5.33
C       5.32      13.24       3.23
C       6.82      13.17       3.69
C       6.83      13.21       5.26
C       6.15      14.50       5.87
C       6.87      15.77       5.27
C       6.86      15.80       3.70
C       7.51      14.48       3.15
C       5.35      15.76       3.26
C      24.46      14.52       3.77
C      24.36      14.52       5.33
C      23.71      15.79       3.22
C      22.20      15.86       3.68
C      22.19      15.82       5.26
C      22.87      14.54       5.86
C      22.16      13.26       5.27
C      22.17      13.22       3.70
C      21.51      14.55       3.15
C      23.68      13.26       3.26
C      14.51      24.39      37.33
C      14.51      24.16      35.77
C      15.76      23.69      37.95
C      15.83      22.15      37.64
C      15.80      22.01      36.07
C      14.52      22.64      35.39
C      13.27      21.94      36.03
C      13.22      22.10      37.60
C      14.53      21.51      38.22
C      13.24      23.64      37.89
C      14.52       4.63      37.33
C      14.51       4.87      35.77
C      13.26       5.34      37.95
C      13.19       6.88      37.64
C      13.22       7.02      36.07
C      14.50       6.40      35.39
C      15.76       7.09      36.04
C      15.81       6.93      37.60
C      14.49       7.52      38.23
C      15.79       5.38      37.90
C      24.39      14.52      18.04
C      24.16      14.51      16.48
C      23.69      13.26      18.66
C      22.15      13.19      18.34
C      22.01      13.22      16.77
C      22.64      14.50      16.09
C      21.94      15.76      16.74
C      22.10      15.81      18.31
C      21.51      14.50      18.93
C      23.64      15.79      18.60
C       4.63      14.50      18.04
C       4.86      14.51      16.49
C       5.33      15.76      18.66
C       6.87      15.83      18.35
C       7.02      15.80      16.78
C       6.38      14.52      16.10
C       7.08      13.26      16.74
C       6.92      13.21      18.31
C       7.52      14.52      18.93
C       5.38      13.23      18.60
C      17.01      21.40      22.45
C      17.99      21.96      21.58
C      18.96      21.18      20.94
C      18.98      19.78      21.13
C      18.09      19.21      22.06
C      17.14      20.01      22.72
C      19.79      18.94      20.32
C      21.19      18.93      20.44
C      21.96      17.98      19.74
C      21.35      17.00      18.90
C      19.95      17.12      18.72
C      19.18      18.05      19.42
C      12.02       7.62      22.45
C      11.04       7.06      21.58
C      10.07       7.84      20.94
C      10.04       9.24      21.13
C      10.94       9.81      22.06
C      11.89       9.01      22.72
C       9.23      10.07      20.32
C       7.83      10.09      20.44
C       7.07      11.04      19.74
C       7.67      12.02      18.90
C       9.07      11.90      18.71
C       9.85      10.97      19.42
C       7.63      17.01       3.16
C       7.06      17.98       2.29
C       7.85      18.96       1.64
C       9.25      18.98       1.84
C       9.82      18.08       2.77
C       9.02      17.14       3.43
C      10.08      19.79       1.03
C      10.10      21.19       1.15
C      11.05      21.96       0.45
C      12.02      21.35      38.19
C      11.91      19.95      38.01
C      10.98      19.18       0.13
C      21.40      12.02       3.16
C      21.96      11.04       2.29
C      21.17      10.07       1.64
C      19.78      10.05       1.84
C      19.21      10.94       2.77
C      20.01      11.89       3.43
C      18.94       9.24       1.03
C      18.93       7.83       1.15
C      17.98       7.07       0.45
C      17.00       7.68      38.20
C      17.11       9.08      38.02
C      18.05       9.85       0.14
C      11.99       7.60      38.24
C      11.06       6.98       0.55
C      10.09       7.73       1.24
C      10.01       9.13       1.07
C      10.86       9.74       0.14
C      11.81       8.99      38.03
C       9.17       9.93       1.88
C       7.79      10.01       1.63
C       7.01      11.00       2.25
C       7.58      11.95       3.15
C       8.95      11.78       3.46
C       9.74      10.81       2.82
C      17.04      21.43      38.24
C      17.96      22.04       0.54
C      18.93      21.29       1.24
C      19.01      19.90       1.07
C      18.16      19.28       0.13
C      17.21      20.03      38.02
C      19.85      19.09       1.87
C      21.24      19.01       1.62
C      22.01      18.02       2.25
C      21.45      17.07       3.15
C      20.07      17.24       3.45
C      19.28      18.22       2.82
C      21.43      11.99      18.95
C      22.04      11.06      19.84
C      21.29      10.09      20.53
C      19.90      10.01      20.36
C      19.28      10.86      19.42
C      20.04      11.82      18.72
C      19.09       9.17      21.16
C      19.01       7.79      20.91
C      18.02       7.01      21.54
C      17.07       7.58      22.44
C      17.24       8.95      22.74
C      18.22       9.74      22.11
C       7.60      17.03      18.95
C       6.99      17.96      19.84
C       7.73      18.93      20.54
C       9.13      19.01      20.36
C       9.75      18.15      19.43
C       8.99      17.20      18.73
C       9.94      19.85      21.16
C      10.01      21.23      20.91
C      11.01      22.01      21.54
C      11.96      21.45      22.44
C      11.78      20.07      22.74
C      10.81      19.28      22.11
C      14.56       3.10      22.65
C      15.64       2.27      23.05
C      15.65       0.89      22.81
C      14.56       0.26      22.18
C      13.50       1.07      21.72
C      13.51       2.45      21.94
C      14.47      28.76      22.18
C      13.37      28.14      22.81
C      13.38      26.75      23.04
C      14.47      25.93      22.65
C      15.52      26.57      21.94
C      15.53      27.96      21.72
C      25.93      14.56       3.35
C      26.76      15.65       3.75
C      28.14      15.65       3.51
C      28.77      14.56       2.87
C      27.96      13.50       2.42
C      26.57      13.50       2.64
C       0.26      14.47       2.88
C       0.89      13.38       3.51
C       2.27      13.38       3.75
C       3.10      14.47       3.36
C       2.46      15.52       2.64
C       1.07      15.53       2.42
C      14.50       3.13      37.61
C      13.41       2.34      37.16
C      13.40       0.94      37.31
C      14.49       0.27      37.90
C      15.57       1.04      38.38
C      15.56       2.44      38.25
C      14.54      28.76      37.90
C      15.63      28.09      37.31
C      15.62      26.69      37.17
C      14.53      25.89      37.61
C      13.46      26.59      38.25
C      13.46      27.99      38.38
C       3.13      14.52      18.33
C       2.33      15.61      17.89
C       0.94      15.63      18.03
C       0.26      14.54      18.62
C       1.04      13.46      19.10
C       2.44      13.46      18.97
C      28.76      14.49      18.62
C      28.09      13.39      18.03
C      26.69      13.41      17.88
C      25.89      14.50      18.32
C      26.59      15.56      18.97
C      27.99      15.56      19.10
C      14.48      22.49      33.87
C      13.40      23.06      33.13
C      13.36      23.04      31.72
C      14.39      22.43      30.98
C      15.45      21.81      31.69
C      15.49      21.85      33.10
C      14.42      22.53      29.56
C      14.40      23.79      28.94
C      14.44      23.91      27.54
C      14.48      22.77      26.69
C      14.49      21.51      27.34
C      14.48      21.38      28.74
C      14.55       6.54      33.87
C      15.63       5.98      33.13
C      15.66       5.99      31.73
C      14.63       6.60      30.98
C      13.58       7.22      31.69
C      13.54       7.18      33.10
C      14.61       6.51      29.57
C      14.63       5.24      28.95
C      14.58       5.12      27.55
C      14.55       6.25      26.69
C      14.53       7.52      27.34
C      14.54       7.65      28.74
C       6.52      14.48      14.58
C       5.96      13.40      13.84
C       5.97      13.36      12.43
C       6.59      14.40      11.69
C       7.20      15.45      12.40
C       7.16      15.49      13.81
C       6.49      14.42      10.27
C       5.23      14.40       9.65
C       5.11      14.45       8.25
C       6.25      14.48       7.39
C       7.51      14.50       8.05
C       7.64      14.49       9.45
C      22.50      14.55      14.57
C      23.06      15.63      13.84
C      23.05      15.66      12.43
C      22.44      14.63      11.69
C      21.82      13.58      12.40
C      21.86      13.54      13.80
C      22.53      14.61      10.27
C      23.80      14.63       9.65
C      23.92      14.59       8.25
C      22.78      14.55       7.39
C      21.52      14.53       8.04
C      21.39      14.55       9.45
