50

N      11.30      10.07      17.71
C       9.93      10.16      17.80
C       7.35      10.92      20.39
C      11.93      10.07      16.42
N       8.31      10.95      23.97
C      12.76       8.86      14.49
C       9.32      10.39      19.05
C      12.12       8.87      15.73
C       8.12      10.85      21.56
C       7.54      11.04      22.83
C      10.10      10.37      20.21
C      12.08      10.07      18.84
C       9.50      10.58      21.47
O      15.32      10.56      12.88
H      13.48      12.19      14.26
C      11.49      10.21      20.11
O       9.20      10.02      16.72
O      13.64       9.75      11.58
H      12.32      12.19      16.43
O       6.24      11.25      22.93
H       7.33      10.73      18.25
C       8.06      12.01      26.18
H       6.30      11.17      20.43
O      13.39       9.96      18.73
C      10.28      10.55      22.64
C       7.68      11.02      25.26
H      12.94       7.92      13.98
O      10.37      10.57      24.99
C       9.66      10.71      23.89
C      12.28      10.24      21.28
H      11.82       7.93      16.18
H       8.64      12.86      25.85
C       7.84      11.82      27.55
C      11.68      10.39      22.53
O       7.62      10.86      30.37
C       6.86       9.97      25.69
H       8.27      12.51      28.27
O       8.14       8.90      29.32
H      13.35      10.13      21.22
C       7.21      10.64      28.00
H       6.52       9.22      24.99
C       6.59       9.81      27.05
H      12.30      10.40      23.42
H       6.03       8.95      27.39
C       7.57      10.08      29.31
C      13.08      11.26      14.65
C      14.13      10.03      12.77
C      12.42      11.27      15.88
C      13.24      10.06      13.94
C       7.94      10.68      19.14
