50

H      14.70      15.32      38.07
H      16.66      11.41      40.06
O      16.63      10.38      44.79
H      16.53      10.37      42.28
H      18.37      12.75      47.66
H      17.31      17.47      42.96
O      16.14      14.61      46.68
H      17.74      12.97      50.02
O      16.13      12.94      51.98
O      17.60      17.43      40.48
H      16.76      16.49      45.14
H      14.62      10.85      46.81
O      14.46      11.41      51.66
H      14.08      10.83      49.22
O      15.12      19.39      34.92
O      15.75      17.73      33.50
O      16.82      13.33      38.45
H      18.15      18.20      35.96
H      18.64      17.05      38.09
H      14.19      16.51      35.97
C      16.86      14.06      39.55
C      16.75      13.45      40.81
C      17.21      16.18      40.59
C      16.64      12.05      40.93
C      16.58      11.45      42.20
C      16.77      14.24      41.96
C      17.02      15.62      41.86
C      16.56      12.26      43.36
C      16.61      13.66      43.23
C      17.06      16.41      43.02
C      16.78      15.85      44.26
C      15.77      18.27      34.70
C      16.57      14.46      44.38
C      16.55      11.69      44.65
C      17.43      12.34      48.00
C      16.40      13.86      45.63
C      17.39      17.58      36.43
C      16.13      17.45      35.84
C      16.47      11.92      47.07
C      15.33      11.26      47.52
C      17.09      12.44      49.35
C      17.68      16.91      37.62
C      15.02      11.26      48.88
C      15.86      11.92      49.80
C      15.17      16.61      36.42
C      15.40      12.18      51.18
C      16.71      16.09      38.21
C      15.46      15.94      37.61
N      16.99      15.43      39.46
N      16.48      12.50      45.75
