50

C       7.84       4.88      40.44
N       7.40       2.11      38.01
C       7.48       4.02      42.70
C       7.64       3.59      39.91
O       7.62       5.39      44.62
C       7.26       2.74      42.16
O       8.06       0.84      50.62
C       6.88       1.89      44.40
O       6.47       2.35      51.29
H       7.86       6.10      42.21
C       7.70       3.36      38.51
H       9.49       1.91      48.70
C       7.33       2.53      40.77
H       5.51       3.51      49.15
O       8.03       4.33      37.70
C       6.92       1.68      43.02
H       9.41       2.42      46.29
O       6.55       0.91      45.21
H       5.47       4.07      46.75
H       8.05       5.72      39.79
O       5.40      -0.67      32.58
O       6.82      -0.12      38.34
O       6.16      -1.89      34.34
C       7.06       1.25      40.24
C       6.61       0.42      42.47
C       7.29       1.92      36.59
H       9.28       1.09      36.37
C       7.11       1.07      38.85
C       6.70       0.21      41.10
C       8.30       1.20      35.92
H       6.32      -0.40      43.11
C       6.05       2.10      35.96
H       5.28       2.66      36.45
H       8.72      -0.19      34.33
H       6.46      -0.77      40.70
H       4.73       1.40      34.42
C       7.98       0.46      34.77
C       5.74       1.37      34.81
C       6.66       0.44      34.29
C       6.14      -0.77      33.65
C       7.37       1.94      50.40
C       8.61       2.39      48.28
C       7.47       2.60      49.08
C       6.37       3.30      48.54
C       8.58       2.70      46.92
C       7.74       5.09      41.83
C       6.35       3.62      47.18
C       7.44       4.19      44.10
C       7.42       3.24      46.35
N       7.22       3.12      44.92
