50

N       8.90       5.27      18.08
C       9.14       6.99      14.26
N       9.15       3.95      24.92
C       7.90       6.92      14.91
C      10.20       6.19      14.72
O      10.34       7.87      12.36
O       8.69       9.16      13.30
C       7.77       6.19      16.09
C      10.09       5.52      15.94
C       8.89       5.58      16.67
H       7.05       7.50      14.56
O       8.39       7.50      18.55
H      11.14       6.18      14.19
O       9.41       3.05      17.62
H       6.84       6.24      16.65
H      10.96       5.03      16.36
O       8.68       6.19      25.35
C       8.63       6.28      18.98
H       7.97       7.99      20.95
O       9.27       6.51      30.35
O       9.64       1.72      24.48
O      11.20       5.39      30.79
C       8.29       7.01      21.28
C       8.63       6.01      20.35
C       9.20       4.00      18.50
H       9.80       1.63      19.65
H       8.09       7.54      23.35
C       8.35       6.75      22.65
H       9.81       1.14      22.05
C       8.97       4.73      20.81
C       9.27       3.72      19.88
H      11.53       3.58      26.15
H       7.73       4.70      29.14
H      11.97       4.34      28.45
H       7.30       3.79      26.88
C       8.72       5.48      23.11
C       9.01       4.46      22.19
C       9.59       2.43      20.34
C       8.83       5.21      24.48
C       9.33       3.17      22.65
C       9.61       2.15      21.72
C       9.37       2.93      24.04
C       8.32       3.91      27.23
C       9.38       3.75      26.33
C       8.56       4.43      28.50
C      10.16       5.61      30.02
C       9.88       4.68      28.91
C      10.70       3.77      26.82
C      10.95       4.22      28.11
C       9.36       8.01      13.23
