33

N       1.69      13.19      10.40
N      -0.21      12.19       9.83
N      -3.46       8.16      13.90
N      -3.61       9.54      12.13
N      -6.39      11.77       6.55
N      -4.72      11.89       8.04
C      -1.55      11.68       9.93
C      -1.85      10.79      10.95
C      -3.22      10.34      11.06
C      -4.15      10.70      10.07
C      -3.79      11.56       9.04
C      -2.47      12.13       8.99
C       0.53      12.72      10.85
C       1.71      12.93       9.04
C       0.54      12.32       8.67
C      -2.75       8.85      12.97
C      -4.79       8.42      13.66
C      -4.92       9.26      12.59
C      -5.67      11.08       7.47
C      -5.86      13.04       6.52
C      -4.82      13.14       7.41
H      -1.08      10.44      11.62
H      -5.17      10.32      10.11
H      -2.19      12.85       8.23
H       0.15      12.79      11.86
H       2.56      13.19       8.43
H       0.17      11.95       7.72
H      -1.69       8.78      12.80
H      -5.56       8.02      14.30
H      -5.79       9.73      12.16
H      -5.76      10.02       7.68
H      -6.26      13.79       5.84
H      -4.19      13.97       7.70
