33

N       9.41       2.27      15.47
N      11.63       2.06      15.57
C      14.44       0.45      17.44
C      15.51       1.25      17.05
C      15.28       2.36      16.20
C      13.96       2.64      15.73
C      12.93       1.78      16.08
C      13.11       0.67      16.94
C      13.88      -1.74      18.45
C      15.50      -1.96      19.91
C      15.69      -0.74      19.29
C      16.18       4.58      15.60
C      18.33       4.15      15.56
C      17.69       2.97      15.86
C      10.45       1.89      16.24
C       9.95       2.69      14.26
C      11.31       2.56      14.30
H      16.51       1.03      17.41
H      13.77       3.50      15.10
H      12.28       0.04      17.22
H      13.05      -1.95      17.80
H      16.08      -2.41      20.70
H      16.41       0.04      19.47
H      15.24       5.11      15.67
H      19.39       4.34      15.44
H      18.07       1.96      15.97
H      10.40       1.55      17.26
H       9.31       3.02      13.45
H      12.08       2.75      13.57
N      14.38      -2.57      19.39
N      14.67      -0.62      18.34
N      17.40       5.15      15.40
N      16.32       3.24      15.90
