33

H      14.32       4.94       6.96
H      17.04       7.41       4.65
H      18.55       3.95       6.77
H      17.77       1.94       7.34
H      14.75       1.49      10.25
H      14.42       3.95       9.02
H      15.58       9.01       5.21
H      11.43       8.23       4.99
H      12.75       5.86       5.54
H      20.42       5.45       6.81
H      21.51       6.93       3.00
H      18.74       6.65       3.11
C      16.39       4.36       6.99
C      15.32       5.15       6.60
C      15.54       6.26       5.75
C      16.86       6.54       5.28
C      17.89       5.69       5.63
C      17.72       4.58       6.49
C      16.94       2.16       7.99
N      16.45       1.33       8.93
N      16.16       3.29       7.89
C      15.14       3.16       8.83
N      14.50       7.14       5.45
C      14.64       8.48       5.15
C      13.12       6.86       5.41
N      19.19       5.97       5.12
C      20.38       5.79       5.78
C      19.51       6.47       3.85
C      15.33       1.95       9.45
N      13.42       9.05       4.95
C      12.49       8.05       5.11
C      20.87       6.60       3.81
N      21.41       6.18       5.02
