888

H       3.15      35.29       0.16
H       1.65      35.58      37.83
H      37.55      38.00      35.52
H      36.10       0.39      35.28
H      37.60       2.01      38.85
H       1.67      38.78       1.95
H      37.60      37.57       0.73
H      36.10      39.19       4.30
H      37.55       1.58       4.06
H       1.67       0.79      37.63
H       1.66       4.00       1.75
H       3.15       4.29      39.42
H       0.44      37.46      36.47
H      38.73      36.56      37.39
H      38.73       3.02       2.19
H       0.44       2.11       3.11
H      35.33       2.68      37.63
H       3.73      37.61       2.76
H      35.33      36.90       1.95
H       3.73       1.97      36.82
H      16.67       4.29      19.91
H      18.17       4.00      18.08
H      21.79       1.58      15.76
H      23.23      39.19      15.52
H      21.73      37.57      19.09
H      18.15       0.79      21.70
H      21.73       2.01      20.49
H      23.23       0.39      24.06
H      21.79      38.00      23.82
H      18.15      38.79      17.88
H      18.17      35.58      21.50
H      16.67      35.29      19.67
H      19.38       2.12      16.72
H      20.60       3.02      17.63
H      20.60      36.56      21.95
H      19.38      37.46      22.86
H      24.00      36.90      17.87
H      16.10       1.97      22.51
H      24.00       2.68      21.71
H      16.10      37.61      17.07
H      14.12      32.96      10.20
H      13.92      31.45       8.35
H      11.63      27.81       5.95
H       9.75      26.36       5.62
H       7.97      27.85       9.12
H      10.59      31.41      11.87
H      11.86      27.85      10.71
H      10.08      26.36      14.21
H       8.20      27.81      13.88
H       9.23      31.41       7.96
H       5.90      31.45      11.48
H       5.71      32.96       9.63
H      12.11      30.21       6.93
H      12.99      28.99       7.88
H       6.84      28.99      11.95
H       7.71      30.21      12.90
H       7.32      25.62       7.86
H      11.74      33.64      12.59
H      12.51      25.62      11.97
H       8.08      33.64       7.24
H       5.71       6.62      29.95
H       5.90       8.13      28.10
H       8.19      11.77      25.70
H      10.08      13.22      25.37
H      11.86      11.73      28.87
H       9.23       8.17      31.62
H       7.97      11.73      30.46
H       9.75      13.21      33.96
H      11.63      11.77      33.63
H      10.59       8.17      27.71
H      13.92       8.13      31.23
H      14.12       6.62      29.38
H       7.71       9.37      26.68
H       6.83      10.59      27.63
H      12.99      10.59      31.70
H      12.11       9.37      32.65
H      12.51      13.96      27.61
H       8.08       5.94      32.34
H       7.32      13.96      31.72
H      11.74       5.94      27.00
H      25.39       6.79      29.22
H      25.61       8.21      31.13
H      27.94      11.77      33.65
H      29.79      13.24      33.99
H      31.57      11.84      30.45
H      28.99       8.29      27.66
H      27.76      11.84      28.88
H      29.54      13.24      25.35
H      31.40      11.77      25.68
H      30.35       8.29      31.67
H      33.72       8.21      28.20
H      33.94       6.79      30.11
H      27.47       9.37      32.62
H      26.58      10.60      31.71
H      32.76      10.60      27.62
H      31.86       9.37      26.71
H      32.13      14.11      31.73
H      27.78       6.15      26.82
H      27.20      14.11      27.61
H      31.55       6.15      32.52
H      33.94      32.79       9.46
H      33.72      31.37      11.38
H      31.40      27.81      13.90
H      29.54      26.34      14.23
H      27.76      27.74      10.70
H      30.34      31.29       7.91
H      31.57      27.74       9.13
H      29.79      26.34       5.59
H      27.94      27.81       5.93
H      28.99      31.29      11.92
H      25.61      31.37       8.45
H      25.39      32.79      10.36
H      31.86      30.21      12.87
H      32.76      28.97      11.96
H      26.58      28.98       7.87
H      27.47      30.21       6.96
H      27.20      25.47      11.97
H      31.55      33.43       7.06
H      32.13      25.47       7.85
H      27.78      33.43      12.76
H      22.94      15.52      20.26
H      21.50      15.72      18.36
H      17.96      18.02      15.82
H      16.53      19.90      15.44
H      17.92      21.71      18.96
H      21.46      19.14      21.79
H      17.92      17.87      20.62
H      16.53      19.68      24.14
H      17.96      21.56      23.76
H      21.46      20.44      17.79
H      21.50      23.86      21.22
H      22.94      24.06      19.32
H      20.34      17.55      16.86
H      19.10      16.68      17.79
H      19.10      22.90      21.79
H      20.34      22.03      22.72
H      15.70      22.33      17.64
H      23.60      17.95      22.63
H      15.70      17.25      21.94
H      23.61      21.63      16.95
H      36.39      24.06       0.51
H      37.83      23.86      38.11
H       1.87      21.55      35.57
H       3.30      19.68      35.19
H       1.90      17.87      38.71
H      37.87      20.44       2.04
H       1.90      21.71       0.87
H       3.30      19.90       4.39
H       1.87      18.02       4.01
H      37.87      19.13      37.54
H      37.83      15.72       1.47
H      36.39      15.52      39.07
H      38.99      22.03      36.61
H       0.72      22.90      37.54
H       0.72      16.68       2.03
H      38.99      17.55       2.96
H       4.13      17.25      37.39
H      35.73      21.63       2.88
H       4.13      22.33       2.19
H      35.73      17.95      36.70
H      36.44      35.39       5.92
H      35.01      33.91       7.11
H      30.86      31.86       1.80
H      32.16      30.75       1.36
H      30.95      33.01      39.21
H      31.09      31.31      38.79
H      32.74      32.71      37.53
H      33.55      31.53      38.57
H      33.25      34.55      39.00
H      34.74      33.58      38.91
H      33.78      31.50       6.62
H      32.34      31.74       5.64
H      37.06      35.33       2.41
H      37.43      36.15       3.92
H      22.89       4.19      25.67
H      24.32       5.66      26.87
H      28.47       7.72      21.55
H      27.17       8.83      21.11
H      28.38       6.56      19.46
H      28.24       8.27      19.03
H      26.59       6.87      17.77
H      25.78       8.05      18.82
H      26.08       5.03      19.24
H      24.60       5.99      19.15
H      25.55       8.08      26.37
H      26.99       7.84      25.39
H      22.28       4.25      22.16
H      21.90       3.43      23.67
H      13.76      26.52      16.06
H      15.22      25.05      17.23
H      17.58      21.29      11.79
H      18.69      22.63      11.43
H      16.48      21.46       9.68
H      18.20      21.63       9.30
H      16.82      23.33       8.07
H      17.96      24.10       9.18
H      14.94      23.77       9.51
H      15.89      25.25       9.51
H      17.45      23.84      17.12
H      17.83      22.95      15.66
H      13.98      27.40      12.61
H      13.06      27.64      14.09
H       6.07      13.06      35.81
H       4.61      14.53      36.99
H       2.24      18.29      31.54
H       1.14      16.95      31.19
H       3.34      18.12      29.43
H       1.63      17.95      29.05
H       3.01      16.26      27.83
H       1.87      15.48      28.93
H       4.89      15.81      29.27
H       3.94      14.33      29.27
H       2.37      15.74      36.88
H       1.99      16.63      35.42
H       5.85      12.18      32.36
H       6.76      11.94      33.84
H      22.89      35.39      13.91
H      24.32      33.91      12.71
H      28.47      31.86      18.03
H      27.17      30.75      18.47
H      28.38      33.02      20.12
H      28.24      31.31      20.55
H      26.59      32.71      21.81
H      25.78      31.53      20.76
H      26.08      34.55      20.34
H      24.60      33.59      20.43
H      25.55      31.50      13.21
H      26.99      31.74      14.19
H      22.28      35.33      17.42
H      21.90      36.15      15.91
H      36.44       4.19      33.66
H      35.01       5.66      32.46
H      30.86       7.72      37.78
H      32.16       8.83      38.22
H      30.95       6.56       0.36
H      31.09       8.27       0.79
H      32.74       6.87       2.05
H      33.55       8.05       1.01
H      33.25       5.03       0.58
H      34.74       5.99       0.67
H      33.78       8.08      32.96
H      32.34       7.84      33.94
H      37.06       4.25      37.17
H      37.43       3.43      35.66
H       6.07      26.52       3.77
H       4.61      25.05       2.59
H       2.24      21.29       8.04
H       1.14      22.63       8.39
H       3.34      21.46      10.15
H       1.62      21.63      10.53
H       3.01      23.32      11.75
H       1.87      24.10      10.64
H       4.89      23.77      10.31
H       3.94      25.25      10.31
H       2.37      23.84       2.70
H       1.99      22.95       4.16
H       5.85      27.40       7.22
H       6.76      27.64       5.74
H      13.76      13.06      23.52
H      15.22      14.53      22.34
H      17.58      18.29      27.79
H      18.69      16.95      28.15
H      16.48      18.12      29.90
H      18.20      17.95      30.28
H      16.82      16.25      31.50
H      17.96      15.48      30.40
H      14.94      15.81      30.06
H      15.89      14.33      30.06
H      17.45      15.74      22.46
H      17.83      16.63      23.91
H      13.98      12.18      26.97
H      13.06      11.94      25.49
H       3.22       3.96      33.58
H       4.72       5.33      32.35
H       8.70       7.67      37.66
H       7.42       8.85      37.98
H       8.51       6.65       0.30
H       8.43       8.39       0.61
H       6.68       7.14       1.91
H       5.95       8.28       0.76
H       6.12       5.23       0.56
H       4.69       6.27       0.52
H       5.85       7.84      32.85
H       7.32       7.61      33.79
H       2.25       4.56      36.75
H       2.18       3.23      35.60
H      16.61      35.62      13.83
H      15.11      34.25      12.59
H      11.12      31.91      17.90
H      12.40      30.73      18.23
H      11.32      32.93      20.05
H      11.40      31.19      20.37
H      13.14      32.44      21.66
H      13.87      31.31      20.52
H      13.71      34.35      20.32
H      15.14      33.31      20.27
H      13.98      31.74      13.10
H      12.51      31.97      14.04
H      17.57      35.02      17.00
H      17.65      36.35      15.84
H      25.63      13.03      23.68
H      24.13      14.48      22.53
H      22.22      18.57      27.96
H      21.08      17.27      28.36
H      23.36      18.41      30.05
H      21.64      18.26      30.47
H      23.04      16.57      31.68
H      21.86      15.79      30.60
H      24.88      16.10      30.18
H      23.92      14.62      30.24
H      21.72      15.68      23.10
H      21.97      17.11      24.09
H      25.63      12.36      27.17
H      26.43      12.01      25.65
H      33.70      26.55       3.92
H      35.20      25.10       2.78
H      37.11      21.01       8.20
H      38.25      22.30       8.60
H      35.98      21.17      10.29
H      37.69      21.31      10.71
H      36.30      23.01      11.92
H      37.47      23.78      10.85
H      34.46      23.48      10.43
H      35.42      24.96      10.49
H      37.61      23.90       3.34
H      37.36      22.47       4.34
H      33.70      27.22       7.42
H      32.90      27.57       5.90
H      16.61       3.96      25.75
H      15.11       5.33      26.98
H      11.12       7.67      21.68
H      12.40       8.85      21.35
H      11.32       6.65      19.53
H      11.40       8.39      19.21
H      13.14       7.14      17.92
H      13.87       8.27      19.06
H      13.71       5.23      19.26
H      15.14       6.27      19.31
H      13.98       7.84      26.48
H      12.51       7.61      25.54
H      17.57       4.56      22.58
H      17.64       3.23      23.74
H       3.22      35.62       6.00
H       4.72      34.25       7.23
H       8.70      31.91       1.93
H       7.42      30.73       1.60
H       8.51      32.93      39.28
H       8.43      31.19      38.97
H       6.68      32.44      37.67
H       5.95      31.31      38.81
H       6.12      34.35      39.02
H       4.69      33.31      39.06
H       5.85      31.73       6.73
H       7.31      31.97       5.79
H       2.25      35.02       2.83
H       2.18      36.35       3.98
H      33.70      13.03      35.66
H      35.20      14.48      36.80
H      37.11      18.57      31.38
H      38.25      17.28      30.97
H      35.98      18.41      29.29
H      37.69      18.26      28.87
H      36.30      16.57      27.66
H      37.47      15.80      28.73
H      34.45      16.10      29.15
H      35.41      14.62      29.09
H      37.61      15.68      36.24
H      37.37      17.11      35.24
H      33.70      12.36      32.16
H      32.90      12.01      33.68
H      25.63      26.54      15.90
H      24.13      25.10      17.05
H      22.22      21.01      11.62
H      21.08      22.30      11.22
H      23.36      21.17       9.53
H      21.64      21.31       9.11
H      23.04      23.01       7.90
H      21.86      23.78       8.98
H      24.88      23.48       9.39
H      23.92      24.96       9.34
H      21.72      23.90      16.48
H      21.97      22.47      15.49
H      25.63      27.22      12.41
H      26.43      27.57      13.93
C       0.78       1.25      39.50
C       0.77       2.21       1.04
C      38.44       0.95       2.24
C      38.46      39.44       1.25
C      37.60      38.32       1.42
C      36.74      38.21       2.54
C      36.71      39.25       3.48
C      37.56       0.85       3.34
C       1.65       3.31       1.00
C       2.54       3.48      39.43
C       2.54       2.57      38.36
C       1.66       1.46      38.41
C       0.78      38.33       0.08
C       0.77      37.37      38.54
C      38.44      38.63      37.34
C      38.46       0.14      38.33
C      37.56      38.73      36.24
C      36.71       0.33      36.09
C      36.74       1.36      37.04
C      37.60       1.26      38.16
C       1.66      38.12       1.17
C       2.54      37.01       1.22
C       2.54      36.10       0.15
C       1.65      36.27      38.58
C      39.37       0.04       0.04
C      39.35      37.46      37.39
C      39.35       2.12       2.19
C      19.05      38.33      19.75
C      19.06      37.37      20.79
C      20.89      38.63      22.00
C      20.87       0.14      21.00
C      21.74       1.26      21.17
C      22.60       1.36      22.29
C      22.62       0.33      23.24
C      21.77      38.73      23.10
C      18.17      36.27      20.75
C      17.29      36.10      19.68
C      17.29      37.01      18.61
C      18.16      38.12      18.66
C      19.05       1.25      19.83
C      19.06       2.21      18.79
C      20.89       0.95      17.58
C      20.87      39.44      18.58
C      21.77       0.85      16.48
C      22.62      39.25      16.34
C      22.60      38.21      17.29
C      21.74      38.32      18.40
C      18.16       1.46      20.92
C      17.29       2.57      20.97
C      17.29       3.48      19.90
C      18.17       3.31      18.83
C      19.96       0.04      19.79
C      19.98       2.12      17.63
C      19.98      37.46      21.95
C       8.71      30.53       9.82
C       7.71      30.53      10.83
C       8.90      28.69      12.08
C       9.96      28.70      11.13
C      11.07      27.84      11.36
C      11.13      26.99      12.49
C      10.05      26.97      13.39
C       8.95      27.82      13.19
C       6.63      31.44      10.75
C       6.51      32.33       9.68
C       7.46      32.31       8.64
C       8.55      31.41       8.72
C      11.12      30.53      10.01
C      12.12      30.53       9.00
C      10.92      28.69       7.75
C       9.87      28.70       8.70
C      10.87      27.82       6.64
C       9.78      26.97       6.44
C       8.69      26.99       7.34
C       8.75      27.84       8.46
C      11.28      31.41      11.11
C      12.36      32.31      11.19
C      13.31      32.33      10.15
C      13.20      31.44       9.07
C       9.91      29.61       9.91
C      12.08      29.61       7.84
C       7.74      29.60      11.98
C      11.12       9.05      29.57
C      12.12       9.05      30.58
C      10.92      10.89      31.83
C       9.87      10.88      30.88
C       8.75      11.74      31.12
C       8.69      12.59      32.24
C       9.78      12.61      33.14
C      10.87      11.76      32.94
C      13.20       8.14      30.51
C      13.31       7.25      29.43
C      12.37       7.27      28.39
C      11.28       8.17      28.47
C       8.71       9.05      29.76
C       7.71       9.05      28.75
C       8.90      10.89      27.50
C       9.96      10.88      28.45
C       8.95      11.76      26.39
C      10.05      12.61      26.19
C      11.13      12.59      27.09
C      11.07      11.73      28.22
C       8.55       8.17      30.86
C       7.46       7.27      30.94
C       6.51       7.25      29.90
C       6.63       8.14      28.83
C       9.91       9.97      29.67
C       7.74       9.97      27.60
C      12.08       9.97      31.74
C      30.87       9.12      29.79
C      31.88       9.10      28.79
C      30.69      10.92      27.50
C      29.64      10.94      28.45
C      28.54      11.82      28.22
C      28.49      12.66      27.09
C      29.56      12.65      26.18
C      30.65      11.78      26.38
C      32.99       8.23      28.92
C      33.12       7.39      30.03
C      32.16       7.43      31.06
C      31.04       8.28      30.92
C      28.46       9.12      29.54
C      27.45       9.10      30.54
C      28.64      10.92      31.84
C      29.69      10.94      30.88
C      28.69      11.78      32.96
C      29.77      12.64      33.16
C      30.84      12.66      32.25
C      30.79      11.82      31.11
C      28.29       8.28      28.41
C      27.17       7.43      28.27
C      26.21       7.39      29.30
C      26.35       8.23      30.42
C      29.67      10.03      29.67
C      27.49      10.00      31.72
C      31.85      10.00      27.61
C      28.46      30.46      10.03
C      27.45      30.48       9.04
C      28.64      28.66       7.74
C      29.69      28.64       8.70
C      30.79      27.76       8.47
C      30.84      26.92       7.33
C      29.77      26.93       6.42
C      28.69      27.80       6.62
C      26.35      31.35       9.16
C      26.21      32.18      10.28
C      27.17      32.15      11.31
C      28.29      31.30      11.17
C      30.87      30.46       9.79
C      31.88      30.48      10.79
C      30.69      28.66      12.08
C      29.64      28.64      11.13
C      30.65      27.80      13.20
C      29.56      26.93      13.40
C      28.49      26.92      12.49
C      28.54      27.76      11.36
C      31.04      31.30       8.66
C      32.16      32.15       8.52
C      33.12      32.19       9.55
C      32.99      31.35      10.66
C      29.67      29.55       9.91
C      31.85      29.58      11.97
C      27.49      29.58       7.86
C      20.61      20.99      19.66
C      20.62      22.02      20.64
C      18.81      20.83      21.95
C      18.79      19.77      21.01
C      17.93      18.66      21.26
C      17.11      18.61      22.41
C      17.11      19.70      23.30
C      17.95      20.79      23.08
C      21.49      23.12      20.51
C      22.34      23.24      19.40
C      22.32      22.27      18.39
C      21.47      21.15      18.53
C      20.61      18.58      19.92
C      20.62      17.56      18.94
C      18.81      18.75      17.63
C      18.79      19.81      18.57
C      17.95      18.79      16.50
C      17.11      19.88      16.28
C      17.11      20.97      17.17
C      17.93      20.92      18.32
C      21.47      18.43      21.05
C      22.32      17.31      21.19
C      22.34      16.34      20.18
C      21.49      16.46      19.07
C      19.70      19.79      19.79
C      19.72      17.59      17.76
C      19.72      21.99      21.82
C      38.72      18.58      39.41
C      38.71      17.56       0.89
C       1.02      18.75       2.20
C       1.03      19.81       1.25
C       1.89      20.92       1.51
C       2.72      20.97       2.66
C       2.72      19.88       3.55
C       1.87      18.79       3.32
C      37.84      16.46       0.76
C      36.99      16.34      39.16
C      37.01      17.31      38.14
C      37.87      18.43      38.28
C      38.72      20.99       0.17
C      38.71      22.02      38.69
C       1.02      20.83      37.38
C       1.04      19.77      38.33
C       1.87      20.79      36.26
C       2.72      19.70      36.03
C       2.72      18.61      36.92
C       1.89      18.66      38.07
C      37.87      21.15       1.30
C      37.01      22.27       1.44
C      36.99      23.24       0.42
C      37.84      23.12      38.82
C       0.13      19.79       0.04
C       0.11      21.99      37.51
C       0.11      17.59       2.07
C      35.66      34.97       3.99
C      34.69      34.20       3.31
C      33.81      33.33       4.03
C      33.90      33.22       5.44
C      34.89      33.99       6.10
C      35.75      34.85       5.39
C      32.81      32.65       1.95
C      33.70      33.49       1.24
C      31.82      31.78       1.28
C      31.60      32.14      39.29
C      32.94      32.44      38.57
C      33.70      33.59      39.27
C      33.09      32.26       6.24
C      36.61      35.87       3.25
C      23.67       4.60      23.74
C      24.65       5.38      23.06
C      25.52       6.25      23.78
C      25.43       6.36      25.19
C      24.44       5.59      25.85
C      23.59       4.73      25.15
C      26.52       6.93      21.71
C      25.63       6.09      21.00
C      27.51       7.80      21.03
C      27.74       7.44      19.53
C      26.40       7.14      18.82
C      25.63       5.99      19.52
C      26.24       7.32      26.00
C      22.72       3.71      23.01
C      14.31      25.91      14.10
C      15.15      25.01      13.40
C      16.02      24.13      14.10
C      16.07      24.14      15.52
C      15.21      25.02      16.21
C      14.35      25.89      15.52
C      16.78      23.23      12.01
C      15.95      24.15      11.31
C      17.66      22.27      11.31
C      17.35      22.11       9.80
C      17.06      23.48       9.13
C      15.88      24.21       9.83
C      17.00      23.27      16.30
C      13.41      26.87      13.39
C       5.52      13.67      33.86
C       4.68      14.57      33.16
C       3.81      15.45      33.86
C       3.75      15.44      35.28
C       4.62      14.56      35.96
C       5.47      13.69      35.27
C       3.05      16.35      31.76
C       3.88      15.43      31.07
C       2.16      17.31      31.06
C       2.47      17.47      29.55
C       2.77      16.10      28.88
C       3.94      15.37      29.59
C       2.82      16.31      36.06
C       6.41      12.71      33.14
C      23.67      34.97      15.84
C      24.65      34.20      16.52
C      25.52      33.33      15.80
C      25.43      33.22      14.39
C      24.44      33.99      13.73
C      23.59      34.85      14.43
C      26.52      32.65      17.87
C      25.63      33.49      18.58
C      27.51      31.78      18.55
C      27.74      32.14      20.05
C      26.40      32.44      20.76
C      25.63      33.59      20.06
C      26.24      32.26      13.58
C      22.72      35.87      16.57
C      35.66       4.60      35.59
C      34.69       5.38      36.27
C      33.81       6.25      35.55
C      33.90       6.36      34.14
C      34.89       5.59      33.48
C      35.75       4.73      34.19
C      32.81       6.93      37.63
C      33.70       6.09      38.34
C      31.82       7.80      38.30
C      31.60       7.44       0.29
C      32.94       7.14       1.01
C      33.70       5.99       0.31
C      33.09       7.32      33.34
C      36.61       3.71      36.32
C       5.52      25.91       5.72
C       4.68      25.01       6.42
C       3.81      24.13       5.72
C       3.75      24.14       4.30
C       4.62      25.02       3.61
C       5.47      25.89       4.31
C       3.05      23.23       7.82
C       3.88      24.15       8.51
C       2.16      22.27       8.52
C       2.47      22.11      10.03
C       2.77      23.48      10.70
C       3.94      24.21       9.99
C       2.82      23.27       3.52
C       6.41      26.87       6.44
C      14.31      13.67      25.48
C      15.15      14.57      26.18
C      16.02      15.45      25.48
C      16.07      15.44      24.06
C      15.21      14.56      23.37
C      14.35      13.69      24.06
C      16.77      16.35      27.57
C      15.95      15.43      28.27
C      17.66      17.31      28.27
C      17.35      17.47      29.78
C      17.06      16.10      30.45
C      15.88      15.37      29.75
C      17.00      16.31      23.28
C      13.41      12.71      26.19
C       3.93       4.49      35.51
C       4.89       5.30      36.17
C       5.80       6.10      35.43
C       5.77       6.12      34.02
C       4.81       5.31      33.37
C       3.92       4.50      34.10
C       6.73       6.93      37.49
C       5.79       6.17      38.22
C       7.73       7.81      38.14
C       7.90       7.55       0.15
C       6.53       7.35       0.85
C       5.73       6.19       0.20
C       6.56       7.09      33.20
C       2.85       3.78      36.26
C      15.90      35.09      15.76
C      14.94      34.27      16.42
C      14.02      33.48      15.68
C      14.06      33.46      14.26
C      15.02      34.27      13.61
C      15.91      35.08      14.34
C      13.09      32.65      17.74
C      14.04      33.41      18.47
C      12.09      31.77      18.38
C      11.92      32.03      19.91
C      13.29      32.23      20.60
C      14.09      33.39      19.95
C      13.27      32.49      13.45
C      16.97      35.80      16.51
C      25.25      13.78      25.63
C      24.49      14.75      26.33
C      23.61      15.63      25.64
C      23.47      15.56      24.23
C      24.23      14.58      23.54
C      25.11      13.72      24.22
C      22.97      16.60      27.74
C      23.81      15.69      28.43
C      22.12      17.60      28.45
C      22.47      17.77      29.95
C      22.77      16.41      30.63
C      23.92      15.66      29.90
C      22.48      16.38      23.46
C      26.16      12.82      26.33
C      34.08      25.80       5.87
C      34.84      24.83       6.58
C      35.72      23.95       5.89
C      35.86      24.02       4.48
C      35.10      24.99       3.79
C      34.22      25.86       4.47
C      36.36      22.97       7.99
C      35.53      23.89       8.67
C      37.21      21.98       8.70
C      36.86      21.81      10.20
C      36.57      23.17      10.87
C      35.41      23.92      10.15
C      36.85      23.20       3.71
C      33.17      26.76       6.58
C      15.90       4.49      23.82
C      14.94       5.30      23.16
C      14.02       6.10      23.90
C      14.06       6.12      25.32
C      15.02       5.31      25.96
C      15.91       4.50      25.24
C      13.09       6.93      21.84
C      14.03       6.17      21.11
C      12.09       7.81      21.19
C      11.92       7.55      19.67
C      13.30       7.35      18.98
C      14.09       6.19      19.63
C      13.27       7.09      26.13
C      16.97       3.78      23.07
C       3.93      35.09       4.07
C       4.88      34.27       3.41
C       5.80      33.48       4.15
C       5.76      33.46       5.56
C       4.81      34.27       6.21
C       3.92      35.08       5.48
C       6.73      32.65       2.09
C       5.79      33.41       1.36
C       7.73      31.77       1.44
C       7.90      32.03      39.43
C       6.53      32.23      38.73
C       5.73      33.39      39.38
C       6.56      32.49       6.38
C       2.85      35.80       3.32
C      34.08      13.78      33.71
C      34.84      14.75      33.00
C      35.72      15.63      33.69
C      35.86      15.56      35.10
C      35.11      14.58      35.79
C      34.23      13.72      35.11
C      36.36      16.60      31.59
C      35.52      15.69      30.91
C      37.21      17.60      30.88
C      36.86      17.77      29.38
C      36.56      16.41      28.70
C      35.41      15.66      29.43
C      36.85      16.38      35.87
C      33.17      12.82      33.00
C      25.25      25.80      13.95
C      24.49      24.83      13.25
C      23.61      23.95      13.94
C      23.47      24.02      15.35
C      24.23      24.99      16.04
C      25.11      25.85      15.36
C      22.97      22.97      11.84
C      23.81      23.89      11.15
C      22.12      21.98      11.13
C      22.47      21.81       9.63
C      22.77      23.17       8.95
C      23.92      23.92       9.67
C      22.48      23.20      16.12
C      26.16      26.76      13.25
N      35.91       2.49      36.80
N       3.41      36.74       2.31
N      35.91      37.09       2.78
N       3.41       2.84      37.27
N      23.42      37.09      17.05
N      16.42       2.84      22.06
N      23.42       2.49      22.53
N      16.42      36.74      17.52
N       7.58      26.17       7.03
N      12.60      33.15      12.30
N      12.24      26.17      12.80
N       7.23      33.15       7.53
N      12.24      13.41      26.78
N       7.23       6.43      32.05
N       7.58      13.41      32.55
N      12.60       6.43      27.28
N      31.94      13.51      32.54
N      26.93       6.63      27.12
N      27.39      13.51      26.80
N      32.40       6.63      32.21
N      27.39      26.07      12.78
N      32.40      32.95       7.37
N      31.94      26.07       7.04
N      26.93      32.95      12.45
N      16.29      22.08      16.84
N      23.13      17.09      22.33
N      16.29      17.50      22.74
N      23.13      22.49      17.25
N       3.53      17.50      36.59
N      36.20      22.49       2.57
N       3.53      22.08       2.99
N      36.20      17.09      37.00
N      32.93      32.60       3.31
N      34.59      34.23       1.96
N      26.41       6.98      23.06
N      24.75       5.35      21.71
N      16.78      23.28      13.36
N      15.16      24.98      12.04
N       3.04      16.30      33.12
N       4.66      14.60      31.80
N      26.41      32.60      16.52
N      24.75      34.23      17.87
N      32.93       6.98      36.27
N      34.59       5.35      37.62
N       3.04      23.28       6.46
N       4.66      24.98       7.78
N      16.78      16.30      26.21
N      15.16      14.60      27.53
N       6.68       6.87      36.13
N       4.92       5.39      37.53
N      13.15      32.70      16.38
N      14.90      34.19      17.78
N      22.90      16.51      26.39
N      24.54      14.82      27.69
N      36.44      23.06       6.64
N      34.79      24.76       7.93
N      13.15       6.87      23.20
N      14.90       5.39      21.80
N       6.68      32.70       3.45
N       4.92      34.19       2.05
N      36.44      16.51      32.94
N      34.79      14.82      31.64
N      22.90      23.06      13.19
N      24.54      24.76      11.89
