22

Cr      11.85       5.81       9.40
Cr      15.26       5.76       9.38
Cr      13.57       2.79       9.29
C      13.69       7.38      11.37
C      15.80       3.30      11.22
C      11.80       3.88      11.42
C      13.69       6.84       7.34
C      15.75       3.40       7.39
C      11.26       3.66       7.40
O      10.95       4.72      10.88
O      12.64       6.89      10.84
O      14.84       7.08      10.94
O      15.87       4.48      10.74
O      14.97       2.44      10.79
O      12.25       2.88      10.71
O      10.90       4.80       7.86
O      12.59       6.97       8.03
O      14.79       7.16       7.92
O      15.82       4.55       7.94
O      14.92       2.52       7.76
O      12.20       2.95       7.90
O      13.56       4.79       9.36
