262

Ni       3.34      -8.04      13.08
Ni      -2.24      -4.00       6.57
Ni      10.94       3.39       6.54
Ni       6.23       6.82      13.09
H       8.41       1.77       2.95
H       7.03       2.79       3.30
H       5.64       1.09       1.86
H       5.80      -6.68      11.62
H       4.97      -6.03      10.17
H       3.06      -5.28      11.59
H       4.59      -4.48      12.04
H       5.71       3.83       1.48
H       5.76       2.57       0.22
H       1.90      -3.92      13.01
H       9.45       3.85       2.10
H       7.96       4.79       2.36
H       8.73       4.76       0.77
H       5.24      -0.26       3.93
H       5.43       1.45       4.35
H       6.78       0.31       4.61
H       8.78       3.08       9.25
H       7.87       1.59       9.15
H       8.38       1.75       6.53
H      -2.17       3.26       8.32
H      -1.31       1.94       7.48
H      -3.46       0.67       7.30
H      -2.97       0.96       8.99
H       9.37       0.36      10.63
H      -5.53       1.93      10.84
H      -4.59       0.48      10.40
H       9.77       0.18       6.88
H       8.89      -0.49       8.27
H      10.64      -0.66       8.16
H       6.36       3.63       7.90
H       6.11       1.88       7.65
H       6.23       2.97       6.26
H       9.36       1.95       0.70
H       8.00      -0.50       2.54
H      -4.47       2.89       8.94
H       8.76       4.48       7.50
H      -5.69      11.99       3.60
H      -4.28      10.99       3.25
H      -5.46       9.15       4.69
H      -1.72      -1.24       8.02
H      -0.85      -1.83       9.47
H       0.46      -3.40       8.05
H       0.74      -1.70       7.60
H      -2.88      10.07       5.06
H      -4.09       9.72       6.32
H       2.12      -4.08       6.63
H       0.88      -1.32       4.44
H       2.24      -2.45       4.18
H       1.98      -1.72       5.77
H       9.10       8.34       2.62
H      10.66       9.06       2.21
H       9.16       9.98       1.94
H       6.60       4.67      10.38
H       5.47       3.34      10.49
H      10.03      11.96       0.01
H      10.19      -5.69      11.32
H       8.67      -5.29      12.17
H       3.23       7.22      12.35
H       3.34       7.77      10.66
H       3.83       4.38       9.01
H       5.07       5.64       8.79
H       3.39       6.08       9.24
H       3.54       4.70      12.76
H       3.18       3.66      11.37
H       2.47       5.27      11.48
H       7.88       2.54      11.73
H       6.30       1.77      12.00
H      11.85      10.30       0.29
H      -0.89      -2.01       5.84
H       8.01      10.89       4.01
H       5.65       6.95      10.70
H      -7.77       5.10      12.13
H      -2.11       5.21      10.10
H      -0.74       4.17       9.74
H       0.66       5.85      11.22
H       0.51      13.65       1.42
H       1.33      12.99       2.87
H       3.23      12.22       1.46
H       1.69      11.45       1.00
H       0.57       3.11      11.57
H       0.53       4.37      12.82
H       4.37      10.87       0.04
H      -3.18       3.13      10.94
H      -1.69       2.18      10.68
H      -2.46       2.20      12.27
H       1.10       7.20       9.15
H       0.90       5.50       8.73
H      -0.43       6.66       8.45
H      -2.56       3.79       3.85
H      -1.69       5.29       4.01
H      -2.24       5.05       6.62
H       8.35       3.52       4.78
H       7.48       4.84       5.61
H       9.62       6.11       5.81
H       9.14       5.84       4.12
H      -3.18       6.54       2.55
H      11.76       4.97       2.27
H      10.78       6.39       2.73
H      -3.64       6.60       6.29
H      -2.74       7.32       4.93
H      -4.50       7.47       5.01
H      -0.16       3.25       5.23
H       0.04       5.00       5.55
H      -0.08       3.86       6.90
H      -3.06       5.02      12.35
H      -1.68       7.45      10.51
H      10.67       3.93       4.12
H      -2.57       2.34       5.58
H      12.02      -5.04       9.55
H      10.60      -4.06       9.90
H      11.76      -2.21       8.43
H       8.05       8.19       5.13
H       7.17       8.76       3.68
H       5.84      10.32       5.09
H       5.59       8.62       5.55
H       9.18      -3.15       8.07
H      10.40      -2.79       6.82
H       9.11      -3.96       6.51
H       5.46       8.25       8.71
H       4.09       9.37       8.97
H       4.35       8.65       7.38
H      -2.80      -1.37      10.49
H      -4.37      -2.09      10.91
H      -2.85      -3.00      11.19
H      -0.34       2.17       2.68
H       0.82       3.48       2.52
H      -3.80      -5.20      13.01
H      -4.00      12.48       1.76
H      -2.47      12.07       0.93
H      -1.94      14.50       0.73
H       2.87      -0.99       2.42
H       2.48       2.46       3.98
H       1.22       1.23       4.27
H       2.88       0.74       3.80
H       2.67       2.04       0.24
H       3.08       3.11       1.60
H       3.76       1.49       1.52
H      -1.60       4.29       1.31
H      -0.01       5.03       0.98
H      -5.61      -3.53      12.73
H       7.22       8.95       7.30
H      -1.71      -3.94       9.13
H       0.58      -0.14       2.41
H      14.00       1.71       0.97
W      -5.51       7.34       9.82
W      11.76      -0.49       3.27
C      -4.17       7.43      11.48
C      -4.82       5.74       8.57
C      -5.62       5.48      10.95
C      -3.55       7.89       9.04
C       7.65       2.92       1.27
C       7.43       2.09       2.56
C       6.49       0.87       2.52
C       4.82      -6.46      11.18
C       4.05      -5.44      12.03
C       6.32       3.39       0.68
C       8.50       4.15       1.65
C       5.95       0.58       3.94
C       9.95       1.32       8.76
C       8.66       2.17       8.65
C       8.14       2.55       7.25
C      -2.28       2.45       7.58
C      -3.32       1.45       8.06
C      -5.54       1.01      10.25
C       9.81       0.02       7.96
C       6.62       2.77       7.27
C      -5.86       8.64       8.16
C      -7.24       7.50      11.07
C       8.46       6.66       8.69
C      -0.69      -5.58      10.58
C      -4.35      11.63       5.27
C      -5.07      11.16       3.99
C       9.79       9.88       4.03
C      -1.21      -2.10       8.46
C      -0.01      -2.51       7.61
C      -3.49      10.51       5.87
C       1.47      -2.13       4.89
C       9.67       9.28       2.61
C       4.57       5.23      10.88
C       5.78       4.27      10.99
C       6.30       3.90      12.39
C       9.46      -6.06      12.05
C       3.92       7.59      11.58
C       4.19       5.35       9.39
C       3.38       4.69      11.68
C       6.99       2.53      12.37
C      10.52      -0.40       1.56
C      10.92       0.96       4.57
C      11.97       1.43       2.33
C       9.82      -1.21       3.91
C      -1.37       4.04      11.77
C      -1.14       4.87      10.49
C      -0.17       6.08      10.54
C       1.49      13.42       1.87
C       2.24      12.40       1.02
C      -0.04       3.56      12.37
C      -2.23       2.82      11.39
C       0.38       6.37       9.13
C      -3.77       5.51       4.38
C      -2.47       4.68       4.48
C      -1.98       4.27       5.89
C       8.45       4.34       5.50
C       9.49       5.35       5.03
C      11.74       5.87       2.89
C      -3.66       6.79       5.21
C      -0.45       4.08       5.89
C      12.23      -1.63       4.99
C      13.40      -0.83       1.98
C      -2.20       0.31       4.22
C       6.76      12.40       2.64
C      10.67      -4.70       7.87
C      11.39      -4.22       9.15
C      -3.48      -2.93       9.11
C       7.52       9.04       4.68
C       6.32       9.44       5.54
C       9.80      -3.59       7.28
C       4.86       9.06       8.26
C      -3.37      -2.31      10.51
C       1.68       1.57       2.15
C       0.48       2.55       2.05
C      -0.07       2.88       0.65
C      -3.26      12.83       1.03
C       2.29      -0.81       1.50
C       2.09       1.49       3.64
C       2.86       2.07       1.32
C      -0.73       4.27       0.65
N       1.49      -7.61      12.39
N      -4.45       4.93       7.80
N      -5.70       4.42      11.47
N      -2.48       8.27       8.72
N       8.43       2.08       0.30
N       7.19      -0.29       1.93
N      -4.61       2.14       8.25
N       8.89       3.75       6.79
N      -6.17       9.33       7.25
N      -8.13       7.61      11.83
N       7.48       6.24       8.17
N      -0.66      -4.44      10.90
N      -0.48      -2.85       6.25
N       8.46      10.19       4.62
N       4.98       6.58      11.39
N      -8.50       4.99      12.85
N       9.78      -0.38       0.64
N      10.57       1.84       5.27
N      12.05       2.48       1.79
N       8.76      -1.61       4.25
N      -2.13       4.88      12.75
N      -0.88       7.25      11.12
N      10.79       4.66       4.84
N      -2.72       3.05       6.31
N      12.49      -2.34       5.91
N       9.43      14.06       1.27
N      -1.23       0.72       4.75
N       6.72      11.27       2.31
N       6.80       9.80       6.89
N      -2.15      -3.23       8.52
N       1.23       0.21       1.70
N      14.72       1.80       0.24
