52

C      -2.15       4.19      22.92
C      -1.27       3.72      25.85
C      -1.43       3.05      22.95
C      -2.16       2.72      25.85
C      -1.95       1.82      23.63
C      -2.04       1.68      25.00
H      -4.14      -1.82      25.85
H       0.04      -2.25      24.97
H      -3.71      -1.79      21.51
H      -0.73      -2.56      22.74
C      -2.44       0.27      25.46
C      -2.28       0.55      22.83
C      -1.41      -0.65      24.78
C      -3.74      -0.05      24.72
C      -1.34      -0.52      23.42
C      -3.66       0.14      23.36
C      -4.72      -0.17      22.51
H      -1.41       4.41      26.32
H      -3.09       4.25      23.47
H      -0.52       2.96      22.37
H      -2.89       2.66      26.65
H       0.40      -0.00      21.48
O      -7.00      -1.80      22.05
H      -2.56       0.17      26.56
H      -2.22       0.67      21.72
O      -0.71       5.23      21.28
H      -0.70      -0.47      27.41
H      -5.67       0.33      22.65
O       1.26      -3.29      21.28
O       2.34      -1.46      20.45
O      -2.63       6.32      21.87
O      -5.86      -2.91      20.37
H      -6.45       0.00      24.86
O      -2.73       5.87      26.41
O      -6.19      -2.52      27.07
O      -0.90       5.38      27.93
C      -1.76       5.33      22.06
O       2.16      -1.33      27.05
O       0.94      -2.94      28.10
O      -8.09      -1.48      26.37
C       1.32      -1.98      21.09
C      -5.90      -2.01      21.34
C      -6.78      -1.64      26.31
C       1.00      -1.83      27.39
C      -1.61       5.09      26.75
C      -5.98      -0.83      25.37
C      -4.60      -1.02      25.28
C      -0.21      -1.25      26.84
C      -0.53      -1.49      25.50
C      -4.66      -1.33      21.74
C      -0.61      -1.49      22.55
C       0.30      -1.07      21.67
