22

F       2.29       2.80      17.92
F       4.41       2.75      17.21
H       4.26       3.58      15.00
H       0.97       7.22      15.80
O       4.65       6.19      12.41
O       1.76       7.20      18.45
C       1.60       5.95      18.05
O       1.06       5.06      18.85
O       3.90       4.06      12.16
C       2.06       5.58      16.69
C       2.99       4.54      16.47
C       3.54       4.37      15.18
C       3.23       5.26      14.14
C       3.38       3.58      17.59
F       3.80       4.29      18.70
F       0.61       7.79      13.50
F       2.77       8.14      13.00
C       1.68       6.42      15.62
C       2.24       6.25      14.34
C       1.80       7.16      13.21
F       1.62       6.44      12.04
C       3.98       5.16      12.87
