540

C       9.87      36.02      14.99
C       9.87      34.27      16.60
C       9.51      33.76      14.31
C       9.87      21.38       7.24
C       9.87      23.65       7.95
C       9.52      21.92       9.54
C       9.86      21.99      23.80
C       9.85      21.46      21.47
C       9.50      23.71      22.17
C       9.86      -9.83      31.12
C       9.87      -8.08      29.52
C       9.51      -7.57      31.81
C       9.87       4.81      38.89
C       9.87       2.54      38.17
C       9.52       4.27      36.59
C       9.87       4.20      22.33
C       9.87       4.72      24.65
C       9.51       2.48      23.95
C       9.56       9.33      31.08
C       9.76       7.56      29.50
C       9.60       7.07      31.81
C       9.56      -5.33      38.94
C       9.76      -3.08      38.20
C       9.59      -4.84      36.61
C       9.56      -4.81      22.31
C       9.76      -5.30      24.63
C       9.59      -3.05      23.91
C       9.57      16.86      15.04
C       9.76      18.62      16.63
C       9.60      19.13      14.31
C       9.56      31.52       7.17
C       9.75      29.27       7.91
C       9.59      31.02       9.50
C       9.56      31.00      23.81
C       9.76      31.49      21.49
C       9.59      29.24      22.21
C       0.12      41.64       9.79
C       0.22      43.14      11.65
C       0.23      40.78      12.02
C       0.12      14.07       4.98
C       0.21      14.93       2.74
C       0.22      16.43       4.60
C       0.11      23.69      31.26
C       0.21      21.32      31.64
C       0.21      22.18      29.41
C       0.11     -15.44      36.32
C       0.22     -16.95      34.47
C       0.22     -14.59      34.09
C       0.12      12.11      41.14
C       0.22      11.26      43.38
C       0.23       9.76      41.52
C       0.11       2.51      14.86
C       0.21       4.87      14.49
C       0.23       4.01      16.72
C       9.89      14.81      36.23
C       0.18      16.40      34.46
C       9.91      14.08      33.96
C       9.89     -12.54      41.11
C       0.18     -11.80      43.38
C       9.91     -10.20      41.62
C       9.89      -3.09      14.98
C       0.18      -5.42      14.50
C       9.91      -4.69      16.76
C       9.89      11.38       9.88
C       0.18       9.79      11.66
C       9.91      12.11      12.16
C       9.89      38.73       5.01
C       0.18      37.99       2.74
C       9.91      36.40       4.50
C       9.89      29.28      31.13
C       0.18      31.62      31.62
C       9.91      30.89      29.36
C       9.89      37.34      14.46
C       9.20      38.59      12.52
C       0.10      39.67      12.89
C       0.75      38.45      14.88
C       1.57      38.40      15.99
C       9.89      20.26       6.37
C       9.20      17.95       6.25
C       0.10      17.73       5.13
C       0.74      20.07       5.18
C       1.55      21.06       4.66
C       9.89      21.80      25.21
C       9.22      22.87      27.26
C       0.09      21.99      28.02
C       0.70      20.85      25.97
C       1.49      19.88      25.37
C       9.88     -11.15      31.65
C       9.18     -12.41      33.59
C       0.10     -13.48      33.22
C       0.75     -12.26      31.24
C       1.58     -12.21      30.13
C       9.89       5.93      39.77
C       9.19       8.23      39.89
C       0.10       8.45      41.00
C       0.75       6.12      40.94
C       1.58       5.13      41.45
C       9.89       4.40      20.92
C       9.20       3.34      18.86
C       0.10       4.20      18.11
C       0.74       5.32      20.16
C       1.55       6.27      20.76
C       9.41      10.67      31.55
C       0.60      12.77      31.90
C       9.72      13.02      33.04
C       8.52      10.98      32.63
C       7.47      10.17      33.05
C       9.41      -6.41      39.86
C       0.60      -7.77      41.51
C       9.72      -8.88      41.15
C       8.52      -7.50      39.59
C       7.47      -7.46      38.69
C       9.41      -5.07      20.92
C       0.60      -5.81      18.92
C       9.72      -4.95      18.13
C       8.53      -4.29      20.11
C       7.47      -3.52      20.60
C       9.41      15.53      14.56
C       0.59      13.42      14.21
C       9.72      13.17      13.07
C       8.53      15.22      13.49
C       7.48      16.03      13.06
C       9.41      32.60       6.26
C       0.60      33.96       4.61
C       9.72      35.08       4.97
C       8.53      33.69       6.53
C       7.47      33.65       7.44
C       9.41      31.26      25.20
C       0.60      32.01      27.20
C       9.73      31.14      27.99
C       8.53      30.48      26.01
C       7.47      29.72      25.52
C       9.27      32.91      13.21
C       0.14      31.03      11.96
C       9.42      31.52      10.80
C       8.52      33.34      12.08
C       7.68      34.45      12.04
C       9.28      21.40      10.83
C       0.16      21.25      13.08
C       9.44      20.00      13.23
C       8.53      20.20      11.02
C       7.69      19.62      10.08
C       9.26      25.08      21.99
C       0.15      27.11      20.99
C       9.43      27.86      21.99
C       8.51      25.85      22.92
C       7.67      25.32      23.90
C       9.27      -6.73      32.91
C       0.14      -4.84      34.16
C       9.43      -5.34      35.32
C       8.52      -7.16      34.04
C       7.68      -8.27      34.07
C       9.28       4.81      35.30
C       0.15       4.95      33.04
C       9.43       6.20      32.89
C       8.53       6.00      35.11
C       7.70       6.59      36.06
C       9.27       1.11      24.13
C       0.15      -0.92      25.13
C       9.43      -1.67      24.13
C       8.52       0.34      23.20
C       7.67       0.87      22.22
C       9.85      33.75      17.92
C       8.94      31.95      19.23
C       9.71      32.34      20.35
C       0.65      34.19      19.06
C       1.55      35.25      19.00
C       9.84      25.06       7.74
C       8.92      27.09       8.62
C       9.70      27.87       7.74
C       0.66      25.82       6.80
C       1.58      25.25       5.93
C       9.83      20.58      20.37
C       8.92      20.33      18.16
C       9.70      19.17      17.93
C       0.65      19.38      20.18
C       1.56      18.91      21.12
C       9.84      -7.56      28.19
C       8.93      -5.78      26.88
C       9.71      -6.15      25.76
C       0.66      -7.99      27.06
C       1.57      -9.04      27.12
C       9.84       1.13      38.38
C       8.94      -0.90      37.48
C       9.71      -1.68      38.37
C       0.65       0.37      39.33
C       1.54       0.94      40.22
C       9.84       5.61      25.76
C       8.93       5.85      27.96
C       9.71       7.01      28.19
C       0.66       6.81      25.95
C       1.56       7.29      25.01
C       0.09      44.42      12.29
C       0.69      -6.71      12.35
C       0.15      -6.57      13.65
C       9.38      44.59      13.55
C       8.62      43.63      14.21
C       0.09      14.84       1.32
C       0.70     -13.01      45.56
C       0.15     -11.96      44.79
C       9.36      15.84       0.54
C       8.59      16.88       1.05
C       0.09      20.14      32.43
C       0.72      18.90      34.41
C       0.15      17.71      33.90
C       9.35      18.97      31.96
C       8.56      18.89      30.81
C       0.10     -18.23      33.83
C       0.70      32.90      33.76
C       0.15      32.76      32.47
C       9.38     -18.40      32.57
C       8.61     -17.44      31.92
C       0.10      11.36      44.80
C       0.70      39.20       0.56
C       0.15      38.15       1.33
C       9.37      10.35      45.58
C       8.60       9.31      45.07
C       0.09       6.06      13.70
C       0.69       7.29      11.70
C       0.15       8.48      12.23
C       9.38       7.24      14.19
C       8.61       7.33      15.35
C       9.72      39.69       6.06
C       0.81      41.46       7.37
C       9.83      41.23       8.44
C       8.77      39.51       7.10
C       7.75      38.56       7.08
C       9.72      11.81       8.53
C       0.81      12.06       6.34
C       9.84      13.11       6.01
C       8.77      12.81       8.16
C       7.75      13.27       8.99
C       9.72      27.89      31.44
C       0.81      25.87      32.32
C       9.83      25.06      31.59
C       8.78      27.08      30.76
C       7.76      27.57      29.94
C       9.72     -13.50      40.06
C       0.80     -15.27      38.75
C       9.83     -15.03      37.68
C       8.77     -13.31      39.02
C       7.75     -12.37      39.04
C       9.73      14.38      37.59
C       0.81      14.12      39.78
C       9.84      13.08      40.11
C       8.78      13.37      37.95
C       7.77      12.91      37.12
C       9.72      -1.70      14.67
C       0.80       0.32      13.80
C       9.83       1.13      14.54
C       8.77      -0.89      15.36
C       7.75      -1.37      16.17
H       8.64      38.59      11.66
H       2.77      37.05      15.44
H       8.65      17.21       6.69
H       2.76      21.29       6.10
H       8.69      23.63      27.68
H       2.74      20.97      24.46
H       8.62     -12.41      34.44
H       2.77     -10.85      30.69
H       8.63       8.97      39.46
H       2.77       4.92      39.99
H       8.65       2.59      18.44
H       2.76       5.13      21.66
H       1.37      13.39      31.66
H       6.62       9.83      31.39
H       1.37      -7.86      42.17
H       6.62      -5.86      39.22
H       1.37      -6.34      18.50
H       6.62      -4.78      21.72
H       1.37      12.80      14.46
H       6.62      16.37      14.71
H       1.36      34.06       3.95
H       6.61      32.06       6.90
H       1.38      32.53      27.61
H       6.62      30.98      24.40
H       0.76      30.21      11.92
H       6.55      34.06      13.51
H       0.77      21.62      13.81
H       6.56      21.07       9.68
H       0.77      27.55      20.31
H       6.54      24.25      22.82
H       0.76      -4.03      34.20
H       6.55      -7.88      32.61
H       0.75       4.57      32.31
H       6.56       5.14      36.45
H       0.77      -1.36      25.81
H       6.55       1.94      23.29
H       8.34      31.13      19.24
H       2.76      34.59      17.71
H       8.30      27.51       9.31
H       2.76      24.46       7.18
H       8.31      20.72      17.45
H       2.75      20.38      21.19
H       8.31      -4.96      26.86
H       2.76      -8.36      28.42
H       8.34      -1.32      36.77
H       2.75       1.75      39.00
H       8.32       5.45      28.68
H       2.75       5.82      24.92
H       1.17      -5.93      11.90
H       7.28      43.34      12.91
H       1.19     -13.78      45.12
H       7.27      15.89       1.96
H       1.21      18.89      35.30
H       7.25      20.18      31.24
H       1.19      32.13      34.21
H       7.27     -17.16      33.23
H       1.19      39.97       1.01
H       7.27      10.30      44.16
H       1.17       7.29      10.80
H       7.27       6.06      14.94
H       1.60      42.10       7.48
H       6.89      39.02       5.46
H       1.59      11.83       5.73
H       6.89      11.64       9.41
H       1.59      25.46      32.83
H       6.90      28.74      31.14
H       1.59     -15.91      38.64
H       6.89     -12.83      40.66
H       1.59      14.36      40.39
H       6.89      14.54      36.72
H       1.59       0.74      13.30
H       6.89      -2.55      14.97
N       0.06      35.60      16.28
N       9.63      33.37      15.59
N       9.65      35.07      14.05
N       0.06      22.71       6.96
N       9.64      23.23       9.23
N       9.66      21.05       8.53
N       0.05      21.08      22.79
N       9.62      22.78      21.20
N       9.64      23.27      23.44
N       0.06      -9.41      29.83
N       9.63      -7.18      30.52
N       9.64      -8.88      32.06
N       0.06       3.47      39.17
N       9.64       2.96      36.89
N       9.65       5.15      37.60
N       0.06       5.11      23.34
N       9.63       3.40      24.93
N       9.65       2.91      22.68
N       9.69       8.91      29.78
N       9.70       6.67      30.53
N       9.52       8.39      32.05
N       9.69      -4.00      39.22
N       9.70      -3.53      36.91
N       9.51      -5.70      37.64
N       9.69      -5.72      23.33
N       9.70      -3.96      24.89
N       9.52      -3.50      22.64
N       9.69      17.28      16.34
N       9.71      19.52      15.60
N       9.53      17.80      14.07
N       9.68      30.19       6.89
N       9.70      29.71       9.20
N       9.51      31.89       8.48
N       9.69      31.91      22.79
N       9.71      30.15      21.23
N       9.52      29.69      23.48
N       0.15      42.91      10.30
N       0.27      42.05      12.47
N       0.13      40.61      10.68
N       0.15      13.87       3.62
N       0.27      16.19       3.27
N       0.12      15.36       5.42
N       0.14      22.61      32.12
N       0.26      21.15      30.28
N       0.12      23.42      29.93
N       0.15     -16.72      35.82
N       0.27     -15.86      33.64
N       0.12     -14.42      35.43
N       0.15      12.32      42.50
N       0.27      10.00      42.85
N       0.13      10.83      40.71
N       0.14       3.58      14.01
N       0.27       5.04      15.84
N       0.12       2.77      16.19
N       0.12      16.10      35.80
N       0.11      15.37      33.57
N       9.82      13.84      35.28
N       0.11     -12.81      42.45
N       0.11     -10.51      42.93
N       9.82     -11.23      40.74
N       0.11      -4.11      14.08
N       0.11      -5.67      15.84
N       9.82      -3.42      16.30
N       0.11      10.08      10.32
N       0.11      10.82      12.55
N       9.82      12.35      10.83
N       0.11      39.00       3.67
N       0.11      36.70       3.19
N       9.82      37.43       5.38
N       0.12      30.31      32.04
N       0.11      31.87      30.28
N       9.82      29.61      29.82
N       9.19      37.50      13.30
N       0.78      39.56      14.06
N       9.20      19.18       6.81
N       0.77      18.81       4.63
N       9.21      22.74      25.92
N       0.74      21.00      27.33
N       9.17     -11.32      32.80
N       0.79     -13.37      32.05
N       9.18       7.01      39.33
N       0.79       7.38      41.49
N       9.20       3.47      20.20
N       0.78       5.17      18.80
N       0.45      11.59      31.25
N       8.76      12.12      33.33
N       0.45      -6.61      40.81
N       8.75      -8.68      40.23
N       0.45      -5.79      20.27
N       8.76      -4.25      18.77
N       0.45      14.61      14.87
N       8.76      14.08      12.78
N       0.45      32.80       5.31
N       8.76      34.87       5.89
N       0.46      31.98      25.84
N       8.76      30.44      27.35
N       0.08      31.77      13.10
N       8.67      32.64      10.93
N       0.09      21.87      11.87
N       8.68      19.56      12.20
N       0.08      25.75      21.06
N       8.66      27.19      22.89
N       0.08      -5.58      33.02
N       8.67      -6.46      35.18
N       0.09       4.33      34.25
N       8.68       6.64      33.93
N       0.09       0.44      25.06
N       8.67      -1.00      23.23
N       9.06      32.65      18.09
N       0.57      33.45      20.21
N       9.04      25.75       8.59
N       0.58      27.19       6.86
N       9.03      20.97      19.34
N       0.57      18.75      18.96
N       9.05      -6.47      28.02
N       0.58      -7.25      25.91
N       9.06       0.44      37.51
N       0.57      -1.00      39.26
N       9.05       5.21      26.79
N       0.57       7.44      27.16
N       0.67      45.54      11.75
N       9.46      -7.68      14.15
N       0.68      13.82       0.62
N       9.45     -10.98      45.50
N       0.69      20.04      33.66
N       9.43      17.84      32.70
N       0.68     -19.34      34.37
N       9.46      33.86      31.97
N       0.68      12.37      45.50
N       9.45      37.17       0.62
N       0.67       6.15      12.46
N       9.46       8.36      13.44
N       0.74      40.67       6.26
N       8.91      40.26       8.23
N       0.74      11.49       7.58
N       8.91      13.42       6.96
N       0.74      27.23      32.19
N       8.91      25.73      30.84
N       0.73     -14.48      39.86
N       8.91     -14.06      37.89
N       0.74      14.70      38.54
N       8.92      12.77      39.16
N       0.74      -1.04      13.93
N       8.91       0.46      15.28
O       1.61      39.40      16.70
O       2.60      37.72      15.99
O       1.60      21.17       3.44
O       2.59      21.42       5.24
O       1.49      18.77      25.89
O       2.54      20.17      24.78
O       1.63     -13.20      29.42
O       2.61     -11.53      30.14
O       1.65       5.02      42.66
O       2.61       4.79      40.85
O       1.58       7.39      20.25
O       2.59       5.94      21.35
O       7.17      10.15      34.23
O       6.59       9.77      32.28
O       7.16      -8.48      38.07
O       6.59      -6.59      38.72
O       7.18      -2.47      20.04
O       6.60      -3.98      21.34
O       7.18      16.05      11.88
O       6.60      16.43      13.83
O       7.17      34.67       8.05
O       6.59      32.79       7.40
O       7.18      28.67      26.08
O       6.60      30.18      24.78
O       7.66      35.16      11.05
O       6.71      34.58      12.81
O       7.69      18.40       9.95
O       6.73      20.21       9.58
O       7.64      25.83      25.01
O       6.70      24.60      23.62
O       7.66      -8.97      35.07
O       6.72      -8.39      33.31
O       7.70       7.81      36.18
O       6.73       6.00      36.55
O       7.65       0.36      21.11
O       6.71       1.59      22.50
O       1.60      35.98      19.98
O       2.60      35.17      18.36
O       1.65      25.71       4.80
O       2.62      24.73       6.34
O       1.64      17.70      21.27
O       2.60      19.52      21.37
O       1.63      -9.79      26.15
O       2.61      -8.95      27.77
O       1.61       0.47      41.35
O       2.59       1.47      39.83
O       1.63       8.50      24.85
O       2.60       6.68      24.75
O       8.75      43.50      15.42
O       7.54      43.23      13.75
O       8.69      17.99       0.54
O       7.52      16.67       1.63
O       8.64      17.90      30.11
O       7.49      19.51      30.72
O       8.73     -17.32      30.71
O       7.53     -17.04      32.39
O       8.69       8.20      45.58
O       7.53       9.52      44.49
O       8.74       8.31      16.06
O       7.54       6.72      15.46
O       7.47      37.96       8.11
O       6.88      38.54       6.21
O       7.48      14.46       9.01
O       6.88      12.52       9.45
O       7.50      26.99      28.89
O       6.89      28.34      30.36
O       7.47     -11.76      38.01
O       6.87     -12.35      39.91
O       7.50      11.72      37.11
O       6.88      13.66      36.68
O       7.49      -0.80      17.22
O       6.88      -2.15      15.76
