92

V       5.83       2.60      12.38
V       1.43      11.21       4.14
V       2.20       2.92      12.40
V       5.06      10.89       4.12
H       0.09       8.88      12.56
H       7.16       4.93       3.96
H       3.75      11.83      12.22
H       3.51       1.98       4.30
H       7.07       7.30       3.51
H       0.18       6.51      13.01
H       3.43      -0.39       4.75
H       3.83      14.20      11.77
H       0.10       3.31       2.14
H       7.16      10.50      14.38
H       3.70       3.60       6.12
H       3.56      10.21      10.40
H       6.68       1.74      16.17
H       1.11       1.84      16.28
H       0.58      12.07       0.36
H       6.15      11.97       0.25
H       3.04       3.78       8.62
H       4.72       3.68       8.50
H       4.22      10.03       7.90
H       2.53      10.13       8.02
C       3.79       1.00      14.10
C       3.46      12.81       2.42
C       0.17       4.52      10.68
C       7.09       9.29       5.84
C       3.79       1.16      10.51
C       3.46      12.65       6.02
C       0.17       4.36      14.28
C       7.09       9.45       2.24
C       7.22       7.41       7.75
C       0.04       6.40       8.78
C       3.59      14.70       0.51
C       3.67      -0.89      16.01
C       0.11       4.79       0.57
C       7.14       9.02      15.95
C       3.73       2.12       7.69
C       3.53      11.69       8.83
C       0.06       4.36       1.91
C       7.20       9.45      14.62
C       3.66       2.54       6.36
C       3.59      11.27      10.17
C       7.20       5.28       2.94
C       0.05       8.53      13.58
C       3.55       1.63       5.32
C       3.70      12.18      11.20
C       7.15       6.63       2.66
C       0.10       7.18      13.86
C       3.51       0.27       5.60
C       3.75      13.54      10.92
C       7.20       7.12       1.33
C       0.05       6.69      15.19
C       3.57      -0.21       6.93
C       3.69      14.02       9.59
C       0.05       6.19       0.25
C       7.20       7.62      16.27
C       3.67       0.72       8.01
C       3.58      13.09       8.52
C       7.16       8.52       1.09
C       0.10       5.29      15.44
C       3.53      13.58       7.18
C       3.73       0.23       9.35
C       7.16       8.26       6.87
C       0.10       5.55       9.65
C       3.53      13.84       1.39
C       3.73      -0.03      15.14
N       0.24       2.39      16.09
N       7.02      11.42       0.44
N       3.86       3.13       8.70
N       3.40      10.68       7.82
O       2.62       1.60      10.96
O       4.63      12.21       5.56
O       6.25       3.92      13.82
O       1.00       9.89       2.70
O       5.01       1.34      13.67
O       2.25      12.47       2.86
O       1.38       4.18      11.12
O       5.88       9.63       5.40
O       5.02       1.44      10.96
O       2.24      12.37       5.56
O       1.39       4.07      13.82
O       5.87       9.74       2.70
O       6.26       4.02      11.10
O       0.99       9.79       5.42
O       2.64       1.50      13.68
O       4.62      12.31       2.84
O       3.84       3.60      12.44
O       3.42      10.21       4.08
O       0.21       1.91      12.34
O       7.05      11.90       4.18
