28

C       9.73       0.13       4.73
C      10.47       0.08       3.54
C      11.83      -0.27       3.55
C      12.42      -0.60       4.77
C      11.68      -0.58       5.97
C      10.33      -0.20       5.95
C      12.36      -0.95       7.24
C      12.62      -0.22       2.30
C      12.05      -0.58       1.07
C      12.79      -0.50      -0.11
C      14.11      -0.03      -0.08
C      14.68       0.35       1.13
C      13.95       0.25       2.31
C      12.16      -0.91      -1.40
C       8.31       0.60       4.71
O      11.70      -1.30       8.28
O      13.64      -0.92       7.26
O      10.88      -0.98      -1.42
O      12.85      -1.17      -2.44
O       7.73       0.78       5.83
O       7.79       0.78       3.55
H       9.97       0.35       2.61
H      13.47      -0.89       4.82
H       9.76      -0.14       6.87
H      11.03      -0.97       1.03
H      14.67       0.06      -1.01
H      15.69       0.75       1.16
H      14.40       0.57       3.25
