28

C       8.78       0.12      10.55
C       7.28       3.98      16.65
H       8.54       1.79      12.64
H       7.30       5.29      10.43
H       8.04       1.57       8.38
H       7.22       2.85      14.23
H       8.25       6.49      16.27
H       8.94       7.51      14.09
H       8.75       6.22      12.00
C       7.69       4.61      15.37
C       8.16       5.93      15.34
C       7.98       2.15       9.30
O       8.96      -0.45       9.42
O       8.97      -0.40      11.70
C       8.31       1.54      10.52
O       7.26       5.45       7.99
O       7.20       2.69      16.68
O       6.89       3.52       6.98
C       8.26       2.28      11.71
O       7.02       4.66      17.69
C       7.23       4.17       8.02
C       7.97       4.44      12.95
C       7.60       3.86      14.18
C       7.92       3.64      11.70
C       7.59       4.24      10.48
C       8.53       6.50      14.12
C       8.43       5.76      12.94
C       7.61       3.50       9.29
