28

C       0.13       9.73      19.99
C       0.08      10.47      18.80
C      -0.27      11.83      18.80
C      -0.60      12.42      20.03
C      -0.58      11.68      21.22
C      -0.20      10.33      21.21
C      -0.95      12.36      22.49
C      -0.22      12.62      17.55
C      -0.58      12.05      16.33
C      -0.50      12.79      15.14
C      -0.03      14.11      15.17
C       0.35      14.68      16.39
C       0.25      13.95      17.57
C      -0.91      12.16      13.86
C       0.60       8.31      19.96
O      -1.30      11.70      23.53
O      -0.92      13.64      22.51
O      -0.98      10.88      13.83
O      -1.17      12.85      12.82
O       0.78       7.73      21.08
O       0.78       7.79      18.81
H       0.35       9.97      17.87
H      -0.89      13.47      20.07
H      -0.14       9.76      22.12
H      -0.97      11.03      16.28
H       0.06      14.67      14.24
H       0.75      15.69      16.42
H       0.57      14.40      18.50
