12

Ni       2.29      11.40      17.37
C       4.53       9.80      16.33
C       3.13      10.68      14.70
O       3.59      10.94      19.01
N       3.17      13.22      17.15
O       1.61      11.87      19.40
C       4.49      13.36      17.40
C       2.46      14.30      16.78
C       2.75      11.45      19.83
C      -0.03      10.98      15.90
N       3.41      10.48      16.00
O       0.68      11.99      16.30
