12

O       8.77      20.87      16.34
Ni       7.13      21.41      17.37
C       4.88      23.03      16.33
O       5.81      21.84      19.01
O       7.81      20.95      19.38
C       6.29      22.17      14.70
C       4.93      19.45      17.38
C       6.96      18.51      16.76
C       6.67      21.34      19.81
N       6.24      19.60      17.12
N       6.01      22.36      16.00
C       9.48      21.87      15.91
