46

Cd      10.07       5.41       4.76
Cd       5.78       1.50       0.82
Cd       2.98       6.47       6.40
Cd       7.27      10.38      10.34
Cd       8.29       3.06       2.79
Cd       4.76       8.83       8.37
H       7.35       7.25       3.73
H       6.65       7.89       5.25
H       5.92       5.22       3.87
H       4.88       6.68       3.98
H       4.20       4.38       1.86
H       3.64       5.14       0.33
H       6.36       5.63       1.71
H       5.00       6.79       1.60
H       5.70       4.63       7.44
H       6.40       4.00       5.91
H       7.13       6.66       7.29
H       8.17       5.20       7.18
H       8.85       7.50       9.30
H       9.41       6.75      10.83
H       6.69       6.26       9.45
H       8.05       5.09       9.56
C       6.90       6.97       4.69
C       5.68       6.11       4.47
C       4.52       4.81       0.90
C       5.49       5.95       1.11
C       6.15       4.91       6.48
C       7.37       5.78       6.69
C       8.53       7.08      10.26
C       7.56       5.94      10.05
Cl       9.06       5.46       2.37
Cl       8.33       1.91       0.56
Cl      10.73       6.26       7.10
Cl       5.82       2.51       3.21
Cl       9.43       2.91       5.02
Cl       6.76       2.64       9.65
Cl       3.99       6.42       8.79
Cl       4.72       9.98      10.60
Cl       2.32       5.62       4.06
Cl       7.23       9.38       7.95
Cl       3.62       8.98       6.15
Cl       6.29       9.24       1.51
O       7.91       6.23       5.42
O       5.17       3.73       0.16
O       5.14       5.65       5.74
O       7.88       8.15      11.00
