11

Ni      11.48       7.33       9.89
C      11.06       8.89       7.99
C      13.98       5.85      11.20
O      12.22       8.67       8.52
C      10.59       5.27       7.97
C      12.78       5.30       8.01
N      11.63       5.81       8.60
C      13.80       8.01      11.48
O      10.98       8.83      11.04
N      13.19       6.96      10.94
C      10.64       8.64      12.28
