11

O       5.34       1.60      15.44
Ni       6.67       2.37      14.06
N       7.08       0.68      13.02
C       5.09       2.76      15.96
N       8.19       2.27      15.36
C       6.05       0.04      12.47
C       8.70       3.32      15.99
C       8.73       1.13      15.95
C       5.33       3.18      11.68
C       8.20      -0.08      12.76
O       5.15       2.83      12.92
