11

N      10.76       1.76      10.79
Ni      12.43       1.58      11.99
C      14.73       2.29      11.24
C      10.10       0.78      10.17
C      11.79      -0.74      12.73
C      10.13       2.95      10.46
C      13.16       3.94      13.80
O      11.58       0.32      13.43
C      11.00       3.85      13.51
O      13.66       2.47      10.54
N      12.20       3.24      13.18
