12

Tb       6.28       0.14      15.41
O       7.85       0.37      17.01
C       8.64       1.17      17.61
N       6.33       2.91      15.06
O       4.69       0.31      13.79
C       3.58       0.94      13.68
O       5.54       2.30      15.90
O       7.16       2.13      14.43
C       8.77      -1.20      13.81
C       4.00      -0.96      17.73
O       7.51      -1.24      14.05
O       5.00      -0.82      16.94
