33

C       1.02       3.84      13.16
C      -2.22       5.38       8.91
C      -2.60       4.39       9.96
H      -4.33       3.66       8.89
H      -3.49       1.68      12.62
H      -0.94       4.89      11.21
O       5.30       3.60       9.74
O      -2.88       5.48       7.83
C      -2.13       3.29      12.07
C       1.68       4.81      12.33
C       1.17       6.20      12.16
C      -4.05       2.60      10.75
C       1.84       2.67      13.39
O       1.05       6.87      13.24
O      -0.30       4.06      13.47
O      -5.63       1.02      11.53
O      -1.28       2.03      13.91
C       2.79       4.16      11.81
O       2.86       1.08      14.83
O      -5.68       1.63       9.34
O       4.72       1.48      10.28
O      -1.17       6.10       9.08
C      -5.21       1.67      10.53
O       0.88       6.57      10.99
C       1.88       1.74      14.52
O       0.79       1.75      15.37
C      -3.26       2.45      11.89
C      -1.25       3.03      13.21
C       3.71       3.21      11.46
C       2.90       2.82      12.48
C       4.68       2.75      10.41
C      -3.72       3.56       9.78
C      -1.81       4.26      11.11
