19

C       5.40      10.61       8.16
H       5.51      10.31       5.51
C       3.22       9.36       7.86
H       5.93      11.02       9.96
C       2.54       8.63       5.64
H       1.83       8.12       5.00
H       3.04       9.41       8.93
C       3.98       9.02       3.65
O       3.07       8.67       2.86
C       4.38       9.93       7.31
O       5.20      10.49       9.47
O       0.35       7.39       6.77
C       3.70       9.19       5.10
C       2.29       8.71       7.02
C       1.03       8.12       7.57
O       6.35      11.24       7.67
O       0.73       8.41       8.77
C       4.61       9.86       5.93
O       5.20       9.21       3.25
