19

C       6.06       2.76       2.03
C       3.18       0.80       4.54
C       5.03       2.07       2.87
H       2.47       0.30       5.19
O       3.66       0.94       7.32
H       6.17       2.45       4.67
H       3.69       1.55       1.25
H       6.58       3.17       0.23
O       0.97      -0.40       3.42
C       4.35       1.36       5.08
O       1.36       0.60       1.41
C       2.94       0.87       3.16
O       5.81       1.41       6.96
O       7.00       3.38       2.53
C       5.27       2.01       4.25
O       5.85       2.64       0.72
C       4.60       1.23       6.54
C       3.87       1.50       2.32
C       1.67       0.30       2.62
