19

C       6.80       5.02      12.25
C       9.67       7.01      14.76
C       8.22       6.62      16.76
H      10.37       7.52      15.41
H       6.69       5.33      14.89
O       7.01       5.15      10.93
H       6.28       4.62      10.45
H       9.17       6.23      11.48
O       5.85       4.40      12.73
O      11.48       7.23      11.63
C      11.17       7.52      12.83
C       7.59       5.78      14.48
C       8.50       6.45      15.30
O       7.01       6.43      17.16
C       9.91       6.93      13.38
O      11.86       8.24      13.64
O       9.14       6.97      17.55
C       8.99       6.28      12.55
C       7.83       5.71      13.10
