33

C      10.37      12.97       7.02
H      16.54      11.98      11.51
C      11.03       9.44       8.25
O      11.15       8.77       7.16
H      15.70      13.96       7.79
O      12.51      11.58       6.94
O       6.90      12.04      10.67
O       7.48      14.16      10.13
O      17.84      14.62       8.87
H      13.14      10.75       9.19
C       8.50      12.43       8.95
O      15.08      10.16      12.58
O      13.37       9.54      11.33
O       9.35      14.56       5.58
C      10.32      13.90       5.88
C      15.46      13.18       8.51
C      16.25      13.04       9.66
C      14.34      12.35       8.33
O      11.32       9.06       9.42
C       7.53      12.89       9.99
O      11.42      13.88       5.03
O      17.88      14.01      11.07
C      15.93      12.08      10.62
O      13.49      13.60       6.49
C      14.02      11.38       9.30
C      17.42      13.96       9.88
C      11.19      11.80       7.25
C       9.42      11.48       8.59
C      14.81      11.25      10.45
C      14.43      10.26      11.49
C       9.31      12.82       7.92
C      13.45      12.61       7.20
C      10.53      10.83       8.07
