35

O       5.68      11.59       1.82
O       3.82      11.43       3.11
H      15.44       8.44       8.47
H      11.10      10.84       8.75
H      13.38      10.06       4.82
H      14.60       9.31      10.67
O      11.05      10.96      11.20
O      13.04      10.46      12.18
H       5.62      11.09       7.55
H      14.08       8.76       6.42
H       9.80      10.12       7.20
H       7.76      11.06       3.05
H       4.25      11.33       5.47
H       8.05      10.85       7.38
H       9.84      11.20       3.03
C       5.32      11.20       5.41
C      12.03      10.27       8.68
C       5.08      11.43       2.94
C       7.47      10.92       6.46
C       8.11      10.89       5.20
C      10.31      10.30       6.26
C      10.31      10.86       3.94
C       6.09      11.06       6.56
C      14.47       8.95       8.53
C      13.71       9.14       7.38
C      11.70      10.10       6.21
C      12.31      10.23       4.96
C      12.24      10.55      11.17
C       5.94      11.22       4.15
C      12.77      10.07       9.84
C      12.48       9.82       7.43
C      14.01       9.41       9.76
C       9.58      10.69       5.13
C       7.32      11.06       4.05
N      11.63      10.60       3.86
