112

V       0.52       4.71       9.90
V       4.01       4.40       9.81
V       4.67       8.96      19.66
V       1.04       0.15       0.05
H       6.27      -0.12      10.17
H       6.46      -2.18      11.42
H       5.83       2.13      13.75
H       5.91      -0.04      19.43
H       5.79       2.16      15.81
H       5.73       2.08      18.21
H       6.41      -3.38      16.04
H       0.92       2.91       3.35
H       0.94       3.78       5.67
H       3.67       4.18       5.64
H       2.81       2.59       6.15
H       3.70       3.47       3.36
H       2.73       1.99       3.93
H       0.60       5.55      14.07
H       0.65       6.58      16.30
H       5.27       6.53      16.13
H       5.74       8.18      15.39
H       5.21       5.57      13.94
H       5.67       7.23      13.19
H       2.68       9.20       9.57
H       2.88      -1.38       6.23
H       2.76      11.28       8.30
H       2.36       6.92       5.97
H       2.25       9.15       0.31
H       2.01       6.96       3.92
H       1.96       7.04       1.52
H       5.88       9.91      12.68
H       0.88       8.62      12.80
H       1.43       9.58      14.23
H       1.40      10.33      12.58
H       2.68       0.45       2.56
C       2.51       5.62      12.13
C       2.48       6.73       8.57
C       5.93       3.53       7.57
C       5.96       2.37      11.14
C       6.31      -1.27      11.98
C       6.03       1.12      11.91
C       5.96      -0.04      18.34
C       5.85       1.16      17.66
C       5.89       1.18      16.26
C       6.03      -0.01      15.51
C       6.15      -1.24      16.22
C       6.07      -0.02      14.08
C       6.23      -1.26      13.39
C       6.34      -2.47      14.12
C       6.31      -2.44      15.51
C       5.96       1.16      13.30
C       6.21      -0.09      11.25
C       6.11      -1.24      17.64
C       4.86       1.88       4.33
C       6.01       1.92       3.53
C       0.12       2.66       4.02
C       0.12       3.17       5.34
C       6.00       2.96       6.20
C       4.87       2.37       5.65
C       3.59       3.08       5.52
C       3.59       2.64       4.09
C       3.63       7.04      13.89
C       2.54       6.27      13.47
C       1.45       6.15      14.35
C       1.48       6.74      15.63
C       2.61       7.45      16.07
C       3.67       7.61      15.16
C       5.11       7.28      15.33
C       5.07       6.67      13.94
C       2.66      10.34       7.77
C       2.53       7.95       7.82
C       2.30       9.15       1.40
C       2.14       7.95       2.08
C       2.17       7.92       3.47
C       2.40       9.10       4.23
C       2.57      10.33       3.53
C       2.46       9.08       5.66
C       2.61      10.31       6.37
C       2.75      11.49       5.68
C       2.80      11.50       4.30
C       2.43       7.90       6.42
C       2.62       9.17       8.49
C       2.52      10.35       2.09
C       2.59      11.58       1.26
C       2.67       8.03      17.44
C       6.18      -2.49      18.42
C       6.09       1.18       2.22
C       0.88       9.63      13.26
C       3.24      12.73       3.73
N       6.50      10.06      13.48
O       3.61       6.17       8.86
O       1.34       5.47      11.59
O       0.11       2.95      10.85
O       1.31       6.32       8.92
O       0.07       3.81       8.16
O       3.64       5.31      11.55
O       2.42       3.73       9.61
O       4.75       3.65       8.12
O       4.78       2.79      10.79
O       5.94       5.38      10.10
O       1.55       8.36      18.01
O       3.77      12.03       0.94
O       4.97       0.75       1.70
O       3.85       8.20      17.97
O       5.05      -3.07      18.71
O       1.47      12.18       0.99
O       2.62       0.83       0.25
O       0.38      -2.92      18.77
O       0.30       0.91       1.73
O       6.22       8.29      19.46
O       4.40      -0.82       3.68
O       2.26      -0.19       3.21
