404

Zn       4.30       6.04       6.23
Zn      -3.71      -0.54      24.49
Zn      -1.08       1.31      11.04
Zn       1.09       7.02       7.85
Zn       5.97       8.84      16.57
Zn       6.24       6.77      19.10
Zn       8.93       8.78       5.41
Zn       8.60      10.69       3.12
Zn      -1.36       3.38       8.50
Zn       0.59       4.12      21.37
Zn      -4.04       1.38      22.19
Zn       3.80       3.14      19.75
H      12.30       0.85       0.72
H      -5.98      12.99      12.72
H       1.38       7.54      24.02
H       0.98      11.46       6.18
H      11.76      -1.10      10.00
H       3.91      -1.31      21.42
H      11.00       2.31       7.51
H       4.25       9.60       3.79
H       7.53       2.76       5.06
H      11.81       7.47       3.78
H      -3.41       6.88      25.96
H       4.85       0.26      26.39
H      -0.78       6.78      10.57
H      -2.66      -4.51      25.73
H       7.27      -3.36      19.13
H      -5.24       8.09      26.65
H      -2.64       7.40      22.54
H      -5.12       2.40      27.27
H       8.64       3.70      21.61
H       4.55      -1.82      14.10
H      -0.53      10.94       3.64
H      -1.35       4.37      14.08
H      -6.93       2.69      23.82
H       7.03       1.76       0.59
H      10.12       2.06       0.95
H       0.49      -1.90      27.03
H       1.72      10.19      14.53
H       4.72       1.18      22.61
H      -3.76       6.46       5.99
H      -0.65       6.06      19.27
H       2.21      -2.70      16.47
H       6.72       0.43       7.73
H       2.14       4.06      10.97
H       9.48      -1.00      13.89
H       6.49      -2.71      16.84
H      -2.38      13.52       8.47
H       3.51       2.62       3.58
H       4.34      13.96       5.48
H      -4.23      12.87       4.16
H      -1.60      12.86      10.77
H      -3.17       9.52      23.77
H      -6.11       7.85      20.10
H       4.04       0.55       2.29
H      -0.75       8.82      11.95
H       0.30       5.94       4.65
H       6.29       3.74      12.12
H      -4.01       8.92      20.94
H       6.24       5.78      13.52
H       0.10       8.87      21.27
H       7.98       0.73      21.12
H       1.11      13.82       3.89
H       9.11      -2.71      23.44
H       1.40      -1.00       9.16
H      -6.87      11.25      17.60
H       0.64       0.56      23.82
H      10.87      -2.83      14.89
H       4.39      12.06       0.57
H      -1.83       9.73      19.87
H       3.58      11.56       2.46
H       6.39      -0.47      17.96
H       4.84       9.36       7.32
H       2.12      -0.48      17.59
H       5.23       3.35      25.22
H       4.79       1.28       6.33
H       4.59       4.21      22.95
H       7.27       0.19      14.55
H       5.18      -0.48      10.13
H       5.42      -0.79      23.97
H       2.15      -0.45      19.91
H       8.30       3.28       1.65
H       3.12       2.16      12.23
H      -4.60      11.16      13.71
H       5.92      -0.43      20.39
H      -1.03      10.59       7.21
H       2.77      10.63      10.01
H       0.85       9.60      25.31
H      -1.50      10.62       9.64
H       0.04       9.90       1.21
H       0.34      11.97      13.50
H       0.05       0.80      20.28
H       5.67       3.37      17.04
H       2.75       6.09      16.64
H       2.21       7.70      20.67
H       3.88      13.49       9.07
H       2.74      10.61       7.69
H       7.55      14.66       1.88
H       6.40      12.64       5.01
H       3.78      -3.66      23.71
H       5.54       4.10       8.33
H      -2.19      14.08       4.95
H       5.64       1.33      15.65
H       1.01      -3.34      18.53
H      -1.59       8.05      18.08
H       3.49      11.15      18.44
H      10.01       7.75       0.33
H      -1.51      -2.49      22.60
H       1.31      -1.40      25.14
H       8.08       5.19       3.20
H      -2.38       9.96      13.05
H       0.55      -3.80      22.12
H       8.06       0.63       3.83
H      -0.34       6.80       2.39
H      -7.41       9.31      26.89
H       3.17      -0.03      13.07
H      -2.14       8.39      27.01
H      -3.19       4.96      24.40
H       8.90       1.23       6.66
H       2.68      12.85      11.13
H      -0.29      10.63      17.48
H       6.48       2.11       9.52
H       7.08      -3.92      22.65
H      -3.10       9.43       6.49
H       2.67       2.45       6.94
H       0.17       8.97       4.99
H       1.77       8.00      15.38
H      -1.40       6.42      15.48
C      -1.20       9.69      24.64
C       4.05      -2.37      26.85
C      -6.61       9.49      18.80
C       9.30       4.41       0.10
C      -4.64       9.43      20.22
C       3.41      12.38       6.63
C       5.52       0.33       0.03
C      -2.39      13.06       5.29
C       6.80       0.05      13.58
C       8.87       7.73       2.80
C      -0.23       6.13      22.45
C       3.12      -2.22      16.81
C       4.66      -4.76      26.82
C       6.04       5.92      16.24
C       3.94      -2.32      21.04
C       7.98      -1.25       7.29
C       9.06      -1.99      14.04
C      -2.07      11.35      14.65
C       0.23      14.91       0.78
C       1.07      12.57       2.15
C      -2.38       7.19       2.98
C      -1.24       6.51      14.41
C       8.24       3.03      23.63
C       3.46      11.43      14.75
C      -1.73      11.10       6.55
C       2.75      10.68      19.08
C      -3.67       4.83      25.37
C       3.82      -2.42      25.45
C       0.44      -2.80      21.72
C       4.15       0.96      18.58
C       3.98       0.61      23.17
C       8.55       5.32       2.23
C       6.62      -0.94      21.05
C       3.54      11.07       7.12
C      -3.09      11.41      20.31
C       5.80       2.30      15.18
C       6.58       4.00      22.15
C      11.84      -0.14       0.71
C       9.53       0.72       7.39
C      -1.06       6.77       3.20
C       7.77      -0.29      21.46
C       6.95      -1.19      12.95
C       5.53       0.92      11.71
C       2.26       9.16       4.48
C      -2.85      12.41      13.98
C      10.01      -1.24       8.74
C       0.84       9.37      20.65
C       7.74      -2.25      13.62
C      -0.59      11.13       9.96
C       7.28      -2.91      22.32
C      -4.13       3.56      25.75
C       1.36      12.19      13.81
C       6.32      -1.41      11.70
C      -1.15       4.24      11.36
C      -2.89      10.44       6.15
C       3.65       2.58      11.38
C      -5.12      11.39      18.87
C      10.69       1.33       7.86
C       6.74      12.10       1.97
C       0.05      -2.90      27.00
C       4.48      -3.55      27.49
C      -1.49      12.43       6.16
C      -1.85      -1.94      25.64
C       4.38      -4.81      25.43
C       0.17      -0.21      20.69
C      -2.18       9.08      23.84
C       8.41      -2.24      22.76
C      -1.20       9.04      14.60
C       1.43      -1.27      12.85
C       3.21       9.89       3.76
C      -1.43      11.56      15.91
C       4.50       2.18       3.62
C       4.83      13.05       0.61
C      -4.42       5.75      27.51
C       1.79       6.51      16.93
C       6.24       4.71      20.89
C       5.54      -1.23       7.06
C       0.95      12.48       6.57
C       0.90       9.54       4.43
C      -0.12       6.50      18.43
C       2.14      -0.52       8.52
C       0.74       9.19       9.02
C      -4.30      10.74      19.81
C      12.76       1.31       9.30
C       5.79       3.44      15.96
C       5.17      -2.98      20.98
C       6.09       0.46       2.96
C       6.11       4.80      13.98
C       4.37      -0.49      23.93
C       5.98       2.37      13.78
C       5.12       4.03       5.16
C       5.53      -2.23      17.03
C       6.78       2.25       4.46
C      -3.98       2.42      24.81
C       5.60      12.22       5.62
C      -1.08       5.45      12.24
C       4.80       1.03       2.90
C      -0.65      11.39      20.54
C      -3.80      11.09       5.30
C       7.90       3.58      22.39
C       6.13       3.65      13.19
C       9.97      -0.29      22.69
C       8.69      -0.94      22.31
C       3.29      -1.19       8.14
C       4.04       0.78       6.95
C      -3.80       5.90      26.25
C      -0.64       9.23      15.89
C      -6.95      10.29      26.90
C      -1.35       5.44       6.72
C       9.02       6.59       1.85
C       1.09       5.94      18.01
C      -1.23       5.35      13.63
C      -1.92      10.11      14.02
C       4.27      -0.54       7.36
C       2.74      -2.97      20.74
C       0.53      13.02      11.00
C       5.75      10.93       6.15
C       6.10       1.61       0.05
C       2.86       1.44       7.29
C       2.69       7.99       5.30
C       0.41      13.70       0.11
C       4.35      -2.87      16.60
C       1.48      -2.23      20.97
C       0.01       8.13      16.64
C      -6.24      10.77      18.35
C       5.53       2.54       9.83
C       0.90      -2.56      13.01
C       3.07      -0.98      17.44
C      -0.71       6.28       4.46
C       6.97      10.17       5.88
C       4.24       8.68      19.11
C      -1.16      -3.09      26.31
C       1.77      12.37      10.79
C       5.95       3.39      24.41
C       5.64      -0.33      11.10
C      -2.09      -0.02      21.72
C       3.99      12.72      14.59
C       0.62      10.70      20.24
C       0.39       7.97      23.99
C       6.04      13.24       1.30
C      -7.87       8.84      18.31
C      -1.69       6.16       5.45
C      -0.64       7.61      17.77
C       3.96      -3.64      24.78
C       0.65       1.48       8.50
C       4.72      10.36       6.92
C      -0.91       7.86      12.43
C       6.61      14.52       1.35
C       2.82      10.99       3.00
C      -3.35       7.12       3.98
C      -1.21       8.54      27.56
C       1.60      11.35      19.46
C       7.67       2.47      26.03
C       6.75      -0.59       7.35
C       0.52      10.64       3.67
C       2.13      11.18      14.38
C      -0.28      13.14       6.63
C       5.60       3.87      23.15
C       1.82      11.13      10.17
C       3.24       5.39       8.87
C       5.97       4.71      15.37
C       2.03       8.72      20.32
C       3.79       4.21       9.59
C       6.09       1.12      13.01
C      -0.64       9.83      27.58
C      -5.80       8.83      19.74
C      -5.08      10.45       4.91
C       5.49       2.81       4.40
C       2.63       1.00      23.12
C       4.34       0.11      27.34
C       5.01       3.65       9.17
C      -0.64      12.38      10.57
C      -0.71      -2.07      21.99
C      -1.89       7.90      23.14
C       2.20       2.17      22.31
C      -2.78       7.69       1.58
C       1.65       4.76      18.73
C      -0.91       6.71      11.64
C       2.98       9.36      19.52
C       4.88       2.02      10.97
C       1.47      11.38       2.94
C      11.50       0.67       8.81
C      -0.60       7.35      23.21
C       2.07      -0.84      24.60
C       9.19      -0.58       7.80
C       1.24       7.58      16.23
C      -0.75      10.49      16.50
C       2.15      13.12       6.86
C       9.62       6.77       0.60
C       1.91       0.79       8.08
C       4.24      -0.35      17.87
C      -1.86      10.74      20.26
C       0.84      12.52       0.75
C       0.93      13.79       2.82
C       2.76      -1.03      13.23
C       4.28      10.32      15.31
C       8.69       4.25       1.36
C       7.26       2.96      24.63
C       0.55      10.04       0.26
C       0.09       9.13      24.70
C       3.42      -1.22      24.66
C       4.45      12.95       5.88
C       7.07       1.07       3.77
C      -3.01       6.57       5.21
C      -4.74       3.39      27.00
C      11.13      -0.61       9.26
C       1.34      -0.92      20.48
C       6.38      -2.27      21.44
C       3.53      -2.03      13.79
C       0.61      -0.16      12.29
C      -3.52      12.39       4.84
C      -1.72      -4.37      26.26
C      -1.09       7.78      13.83
C      -0.86      -0.78      21.45
C      -4.17      12.15      13.56
C       0.51      14.97       2.17
C       1.68       0.27      23.85
C       3.10       3.64      10.67
C       0.64      10.50       9.73
C       5.48      -0.98      17.65
O       7.84       7.94      19.07
O       0.84       4.08      19.47
O       0.95       2.47      22.34
O       7.83       9.26      17.20
O       2.99       1.40      18.89
O       7.85      10.66       5.06
O      -0.25       5.63       7.32
O      -2.14       7.06       0.68
O      -2.94       0.90      10.40
O       5.20       1.62      18.89
O      12.52       8.57       1.56
O       2.88       4.49      18.58
O       1.14       0.95      12.05
O       5.54      10.53      15.56
O      -1.26      -0.88      25.35
O       3.86       4.31       5.26
O       0.38       2.61       7.97
O       1.03       5.85      22.34
O       6.13       5.68      17.49
O       5.99       4.79       5.70
O       1.90       8.76       8.71
O      -3.12      -2.15      25.37
O       7.03       3.09      26.93
O      -0.09       0.87       9.34
O       4.98       9.28      18.26
O       6.01       7.07      15.68
O       3.75       9.20      15.55
O       7.22       9.05       6.46
O       1.83       7.32       5.96
O      -2.33       1.10      21.15
O      -2.95       2.22       8.54
O      -7.63       1.59      26.04
O      -1.11       5.37      21.90
O       6.15      11.03       2.25
O       2.01       5.66       9.03
O       3.06       2.84      21.65
O       4.51       7.54      19.64
O       7.07       5.61      20.51
O       5.14       4.52      20.28
O       8.76       7.43       4.05
O      -2.97      -0.50      22.54
O      -0.31       8.53       8.71
O      -1.24       4.47      10.11
O       3.94       7.68       5.26
O       8.01      12.30       2.24
O      -3.87       2.73      23.56
O      -1.12       3.09      11.92
O       8.87       8.91       2.32
O      10.45      10.95       3.94
O       4.05       6.08       8.14
O      -3.98       1.24      25.29
O      -5.84       0.72      21.96
O      -2.18       4.55       7.10
O      -0.65      -0.38      12.05
O      10.73       9.44       5.64
O      -5.56      -0.79      23.66
