19

Cu       6.95       9.25       3.86
Cu       5.91      12.41       5.65
Cu       6.51      10.99       0.36
W       6.17      11.73       2.93
C       7.47      15.07       6.05
C       8.26       7.90       3.71
C       5.11      11.22       8.38
C       6.16       7.59       6.17
C       4.45       8.98       5.43
C       6.72      10.34      -1.38
S       7.71      11.33       4.53
S       5.57       9.76       2.03
S       4.40      12.59       3.92
S       7.07      12.96       1.32
N       6.85      14.07       6.03
N       5.68       8.46       5.25
N       5.28      11.63       7.30
N       8.88       6.90       3.73
N       6.89       9.91      -2.46
