19

Cu      -1.50       5.14      15.65
Cu      -0.46       1.98      13.86
Cu      -1.06       3.40      19.15
W      -0.72       2.66      16.58
C      -1.27       4.05      20.89
C      -2.02      -0.68      13.46
C      -2.81       6.49      15.79
C       0.34       3.17      11.13
C      -0.71       6.80      13.34
C       1.00       5.41      14.08
S      -2.26       3.06      14.98
S      -0.12       4.63      17.47
S       1.05       1.80      15.59
S      -1.62       1.43      18.19
N      -1.44       4.48      21.97
N      -1.40       0.32      13.48
N      -0.23       5.93      14.25
N       0.17       2.76      12.21
N      -3.43       7.49      15.78
