120

C       0.81       5.96       1.25
C       1.03       6.89       2.41
C      -4.10       8.50       9.78
C       5.88       0.35      -3.86
C       3.66       3.01      -2.78
C       4.09       1.62      -3.14
C      -0.37       6.79       5.75
C       0.44       7.31       4.60
C       0.81      -4.07       4.53
C       1.03      -5.53       4.76
C      -9.82       3.45       2.47
C     -11.27       3.17       2.24
C       3.66       0.90       3.99
C       4.09       1.91       2.97
C      -6.09       7.80       3.01
C      -5.28       8.54       4.03
C       0.81      -1.89      -5.79
C       1.03      -1.36      -7.17
C       1.61      12.31       1.75
C       0.16      12.65       1.62
C      -2.05      12.26      -1.21
C      -1.63      12.64       0.17
C      -0.37       1.58      -8.76
C       0.44       0.33      -8.63
C      -0.81      -5.96      -1.25
C      -1.03      -6.89      -2.41
C       9.82      -0.41       4.22
C      -0.16       7.73     -10.14
C      -3.66      -3.01       2.78
C       1.63       6.47     -10.86
C       6.09       1.29       8.26
C      -0.44      -7.31      -4.60
C      -0.81       4.07      -4.53
C      -1.03       5.53      -4.76
C      -1.61       4.63      11.53
C      -0.16       4.92      11.77
C       2.05       7.18      10.01
C       1.63       6.17      11.03
C       0.37       8.37      -3.01
C      -0.44       7.63      -4.03
C      -0.81       1.89       5.79
C      -1.03       1.36       7.17
C      -7.33       3.86      -1.75
C      -5.88       3.52      -1.62
C      -3.66       3.91       1.21
C      -4.09       3.53      -0.17
C       0.37      -1.58       8.76
C      -0.44      -0.33       8.63
Eu      -1.12       4.48       3.50
Eu       6.83       3.60      -3.50
Eu      -1.12      -5.27       2.13
Eu       6.83       1.23       4.87
Eu      -1.12       0.79      -5.63
Eu       1.12      11.34      -1.37
Eu       1.12      -4.48      -3.50
Eu      -1.12       4.48     -10.50
Eu       1.12       5.27      -2.13
Eu      -1.12       6.85       9.13
Eu       1.12      -0.79       5.63
Eu      -6.83       4.83       1.37
N       0.34       6.54       3.50
N       5.38       1.54      -3.50
N       0.34      -6.30       3.91
N       5.38       2.26       3.09
N       0.34      -0.24      -7.41
N      -0.34      12.37       0.41
N      -0.34      -6.54      -3.50
N       0.34       6.54     -10.50
N      -0.34       6.30      -3.91
N       0.34       5.82      10.92
N      -0.34       0.24       7.41
N      -5.38       3.80      -0.41
O       0.10       4.94       1.49
O       1.31       6.23       0.15
O       7.85       1.57      -4.23
O      -3.49       7.44       9.52
O       4.58       3.88      -2.77
O       2.46       3.23      -2.52
O      -1.10       5.78       5.51
O      -0.28       7.36       6.86
O       0.10      -3.76       3.53
O       1.31      -3.24       5.32
O      -9.30       2.88       3.47
O      -9.21       4.20       1.68
O       4.58       0.46       4.75
O       2.46       0.57       4.06
O      -6.81       8.51       2.25
O      -6.00       6.55       2.94
O       0.10      -1.17      -5.02
O       1.31      -2.99      -5.47
O       2.14      11.72       0.76
O       2.22      12.61       2.80
O      -1.14      11.83      -1.98
O      -3.26      12.37      -1.53
O      -1.10       1.88      -7.76
O      -0.28       2.26      -9.80
O      -0.10      -4.94      -1.49
O      -1.31      -6.23      -0.15
O      -2.14       6.52      -9.77
O       9.21       0.65       4.48
O       1.14       4.20     -11.23
O      -2.46      -3.23       2.52
O       1.10      -5.78      -5.51
O       6.00       0.73       7.15
O      -0.10       3.76      -3.53
O      -1.31       3.24      -5.32
O      -2.14       5.20      10.53
O       3.49      11.97      -1.68
O       1.14       7.63       9.25
O      -2.46      -0.57      -4.06
O       1.10       7.66      -2.25
O       0.28       9.62      -2.94
O      -0.10       1.17       5.02
O      -1.31       2.99       5.47
O      -7.85       4.45      -0.76
O       9.21       3.56      -2.80
O      -4.58       4.34       1.98
O      -2.46       3.80       1.53
O       1.10      -1.88       7.76
O       6.00       5.83      -4.20
