16

La      -0.10       7.96       7.95
P       0.87       4.34       7.39
P      -2.46       5.83       6.00
O       0.94       5.83       7.47
O       2.04       8.43       6.56
H      -0.68      10.15       9.96
O      -0.39       9.40      10.11
C      -1.25       7.88       4.51
O      -0.78       6.81      10.13
C       2.43       9.61       6.34
O      -1.98       6.42       7.29
C      -1.00       8.88      11.30
C      -1.14       7.38      11.20
O      -0.76       8.47       5.50
O       0.61      10.38       7.72
C       1.59      10.73       7.04
