29

C       2.02      -4.41      15.32
O       1.63       0.84      18.16
C       2.24       0.23      17.23
C      -2.65      -0.50      20.57
C       2.18       1.06      21.61
C      -5.36       0.64      17.78
C       0.22       2.30      21.66
O       2.00      -0.93      16.76
C       3.23      -4.05      17.26
O      -0.92       1.94      18.85
O      -1.65       1.36      16.78
C      -1.13       2.17      17.63
O      -0.64      -3.03      15.83
O      -2.48      -1.67      15.91
C      -1.79      -2.63      15.46
O       1.42      -1.47      20.19
O       0.86      -3.39      19.09
O      -0.72      -1.21      18.21
O      -1.41      -0.39      20.82
O      -3.22      -0.59      19.42
Zn       0.70      -2.39      17.29
Zn       0.17       0.16      19.52
Zn      -2.46      -0.35      17.51
H      -1.08      -1.82      18.87
C       1.08      -2.70      20.15
N       0.96       1.32      21.10
N       2.14      -3.80      16.51
N      -4.39       0.32      16.91
C      -4.54       0.67      15.61
