632

H      11.89       0.97      11.28
H       9.56       0.81      11.69
H       7.14       0.86      11.70
H       4.81       1.14      11.33
H       5.55       4.80       9.32
H      11.29       4.67       9.29
H       8.51       5.63      12.39
H       8.70       9.71      11.26
H       8.61       9.08       8.96
H       8.40       3.19       7.17
H       8.53       8.04       6.72
H       8.51       6.68       4.76
H      13.42       3.24       9.00
H       3.18       3.99       9.82
H       8.42       3.01       4.71
H       8.92       7.46      14.10
H       5.02       1.16      51.10
H       7.38       0.84      50.94
H       9.79       0.80      51.07
H      12.13       1.09      51.40
H      11.43       4.82      53.30
H       5.64       4.83      53.14
H       8.48       5.59      50.24
H       8.27       9.69      51.29
H       8.36       9.12      53.59
H       8.54       3.29      55.54
H       8.45       8.15      55.83
H       8.45       6.87      57.83
H       3.27       4.00      52.18
H      13.80       3.99      52.74
H       8.51       3.20      58.04
H       8.05       7.40      48.48
H      28.38       1.18      51.38
H      26.04       1.44      51.02
H      23.62       1.39      50.87
H      21.26       1.06      51.03
H      21.90      37.05      53.09
H      27.67      37.12      53.31
H      24.92      36.25      50.23
H      24.97      32.17      51.38
H      24.85      32.80      53.67
H      24.70      38.70      55.45
H      24.73      33.85      55.90
H      24.65      35.20      57.86
H      30.04      37.94      52.73
H      19.51      37.89      52.12
H      24.54      38.87      57.92
H      25.29      34.41      48.53
H      21.07       1.11      11.23
H      23.41       1.38      11.60
H      25.82       1.38      11.66
H      28.16       1.15      11.35
H      27.55      37.10       9.35
H      21.79      37.06       9.26
H      24.55      36.28      12.38
H      24.49      32.17      11.34
H      24.62      32.75       9.03
H      24.72      38.58       7.08
H      24.75      33.72       6.79
H      24.80      35.00       4.79
H      19.43      37.89       9.74
H      29.80      38.22       9.34
H      24.79      38.67       4.58
H      24.17      34.46      14.14
H      28.16      20.94      42.09
H      25.82      20.73      42.41
H      23.41      20.72      42.35
H      21.08      20.98      41.96
H      21.80      24.66      39.97
H      27.55      24.61      40.03
H      24.67      25.52      43.06
H      24.70      29.61      41.94
H      24.70      28.98      39.64
H      24.71      23.08      37.84
H      24.73      27.93      37.39
H      24.77      26.57      35.43
H      29.82      23.55      40.10
H      19.43      23.83      40.43
H      24.81      22.90      35.37
H      24.93      27.33      44.78
H      21.30      20.95      20.62
H      23.64      20.73      20.30
H      26.05      20.72      20.36
H      28.38      20.98      20.72
H      27.67      24.68      22.69
H      21.91      24.64      22.64
H      24.81      25.48      19.59
H      24.76      29.59      20.63
H      24.75      29.01      22.93
H      24.76      23.17      24.89
H      24.72      28.04      25.18
H      24.69      26.75      27.18
H      19.65      23.54      22.62
H      30.04      23.84      22.18
H      24.71      23.09      27.39
H      24.60      27.25      17.82
H      12.13      20.89      20.67
H       9.80      21.16      20.29
H       7.39      21.15      20.21
H       5.04      20.91      20.50
H       5.65      17.25      22.57
H      11.41      17.21      22.66
H       8.57      16.36      19.57
H       8.45      12.27      20.70
H       8.42      12.91      23.00
H       8.53      18.80      24.79
H       8.42      13.95      25.24
H       8.42      15.31      27.20
H      13.78      18.05      22.18
H       3.34      18.20      22.29
H       8.50      18.98      27.26
H       8.77      14.54      17.85
H       4.82      20.88      41.92
H       7.16      21.15      42.29
H       9.57      21.17      42.32
H      11.90      20.97      41.96
H      11.30      17.27      39.96
H       5.54      17.19      39.95
H       8.41      16.41      43.05
H       8.51      12.30      42.01
H       8.53      12.87      39.70
H       8.42      18.71      37.74
H       8.52      13.85      37.46
H       8.52      15.13      35.46
H       3.17      18.03      40.43
H      13.51      18.52      39.82
H       8.46      18.79      35.24
H       8.26      14.63      44.82
H       8.48       0.10      60.42
H       8.47       6.52       1.97
H       8.48       6.66      60.91
H       8.47       1.84       2.82
H      24.74       2.12       2.20
H      24.72      35.36      60.65
H      24.74      35.22       1.71
H      24.74       0.39      59.81
H      24.73      19.99      29.78
H      24.73      26.41      32.63
H      24.73      26.54      30.26
H      24.72      21.72      33.49
H       8.48      21.90      32.85
H       8.48      15.47      30.01
H       8.47      15.34      32.38
H       8.48      20.16      29.15
H      30.15       3.46       7.13
H       2.04       0.16      11.51
H      32.33      38.90      11.66
H       1.61       3.53       8.15
H      19.26       3.67      55.59
H      15.00       0.09      51.30
H      17.21      38.84      51.24
H      15.31       3.62      54.48
H       2.97      38.20      55.59
H      31.25       2.19      51.32
H       0.97       3.07      51.26
H      31.53      38.29      54.49
H      13.83      38.48       7.16
H      18.32       2.02      11.53
H      16.12       2.94      11.74
H      17.81      38.36       8.13
H      13.86      23.25      37.78
H      18.30      20.01      42.16
H      16.11      19.08      42.33
H      17.84      23.36      38.80
H       3.06      23.35      24.90
H      31.20      20.01      20.52
H       0.91      19.11      20.38
H      31.59      23.40      23.86
H      19.32      18.60      24.87
H      14.92      21.88      20.49
H      17.12      22.81      20.34
H      15.36      18.50      23.83
H      30.13      18.59      37.76
H       2.03      21.85      42.15
H      32.33      22.77      42.31
H       1.59      18.49      38.79
H       6.05      13.12      12.50
H       9.40      10.36      18.03
H       9.44       8.85      16.17
H       6.92      14.08      16.39
H      10.91      13.03      50.18
H       7.56      10.42      44.58
H       7.54       8.85      46.39
H      10.02      14.11      46.33
H      22.32      28.80      50.16
H      25.64      31.51      44.59
H      25.73      33.01      46.45
H      23.12      27.82      46.26
H      27.15      28.89      12.43
H      23.82      31.45      18.06
H      23.75      33.01      16.24
H      26.32      27.80      16.29
C       8.44       5.02       8.22
C       8.48       6.41       8.08
C       8.50       7.00       9.33
C       8.47       6.00      10.31
C       8.52       6.36      11.68
C       8.59       7.73      12.07
C       8.63       8.71      11.03
C       8.58       8.36       9.68
C       8.50       7.02       6.81
C       8.49       6.21       5.67
C       8.45       4.79       5.76
C       8.43       4.21       7.06
C       9.56       3.77      10.08
C       9.08       2.65      10.76
C       7.70       2.67      10.75
C       7.26       3.82      10.08
C       6.81       1.70      11.23
C       5.44       1.87      10.99
C       4.94       2.99      10.28
C       5.87       3.99       9.85
C      10.95       3.88       9.84
C      11.84       2.86      10.27
C      11.30       1.75      10.98
C       9.93       1.64      11.24
C       8.43       4.65       9.67
C       3.58       3.10      10.00
C      13.17       2.84       9.87
C       8.44       4.00       4.61
C       8.66       8.12      13.41
C       8.52       5.08      54.43
C       8.49       6.47      54.53
C       8.48       7.02      53.26
C       8.52       6.00      52.31
C       8.47       6.34      50.93
C       8.39       7.70      50.52
C       8.35       8.70      51.53
C       8.40       8.38      52.89
C       8.47       7.13      55.77
C       8.47       6.36      56.94
C       8.50       4.94      56.90
C       8.52       4.31      55.62
C       7.40       3.80      52.57
C       7.88       2.65      51.94
C       9.26       2.64      51.98
C       9.70       3.81      52.61
C      10.14       1.65      51.53
C      11.51       1.83      51.73
C      12.02       2.98      52.40
C      11.10       3.98      52.82
C       6.00       4.00      52.67
C       5.10       3.02      52.17
C       5.63       1.88      51.50
C       7.02       1.68      51.40
C       8.54       4.67      52.99
C      13.39       3.09      52.63
C       3.72       3.12      52.31
C       8.50       4.20      58.09
C       8.32       8.06      49.17
C      24.74      36.87      54.40
C      24.76      35.48      54.54
C      24.81      34.89      53.29
C      24.84      35.89      52.31
C      24.91      35.52      50.95
C      24.94      34.15      50.56
C      24.93      33.17      51.60
C      24.86      33.53      52.95
C      24.72      34.86      55.81
C      24.68      35.67      56.95
C      24.67      37.09      56.86
C      24.70      37.68      55.56
C      25.95      38.11      52.59
C      25.50      39.26      51.94
C      24.12      39.24      51.87
C      23.65      38.08      52.49
C      23.26       0.55      51.32
C      21.88       0.35      51.43
C      21.35      38.86      52.10
C      22.25      37.88      52.60
C      27.34      37.95      52.82
C      28.26      38.95      52.40
C      27.75       0.44      51.72
C      26.38       0.61      51.49
C      24.79      37.24      52.96
C      19.97      38.76      52.26
C      29.63      38.84      52.63
C      24.64      37.89      58.02
C      25.01      33.75      49.22
C      24.71      36.79       8.19
C      24.71      35.39       8.09
C      24.66      34.84       9.36
C      24.64      35.87      10.31
C      24.57      35.53      11.69
C      24.53      34.17      12.10
C      24.54      33.16      11.09
C      24.61      33.49       9.73
C      24.75      34.74       6.85
C      24.77      35.51       5.68
C      24.76      36.93       5.72
C      24.73      37.56       7.00
C      23.51      38.06      10.00
C      23.95      39.21      10.66
C      25.33      39.20      10.71
C      25.81      38.06      10.06
C      26.18       0.54      11.21
C      27.56       0.39      11.02
C      28.10      38.92      10.33
C      27.20      37.91       9.87
C      22.12      37.89       9.77
C      21.20      38.89      10.19
C      21.70       0.37      10.89
C      23.07       0.54      11.12
C      24.67      37.20       9.63
C      29.46      38.88      10.00
C      19.83      38.77       9.93
C      24.77      37.68       4.54
C      24.46      33.80      13.45
C      24.69      24.91      38.89
C      24.70      26.30      38.75
C      24.68      26.89      40.01
C      24.67      25.89      40.98
C      24.67      26.25      42.35
C      24.68      27.63      42.74
C      24.68      28.61      41.71
C      24.68      28.25      40.35
C      24.72      26.91      37.49
C      24.75      26.10      36.34
C      24.74      24.68      36.43
C      24.72      24.10      37.73
C      25.81      23.68      40.77
C      25.33      22.54      41.44
C      23.95      22.55      41.41
C      23.51      23.69      40.73
C      23.07      21.56      41.87
C      21.70      21.72      41.62
C      21.20      22.84      40.91
C      22.12      23.84      40.49
C      27.20      23.81      40.57
C      28.10      22.81      41.03
C      27.56      21.70      41.74
C      26.19      21.56      41.94
C      24.67      24.54      40.34
C      19.83      22.94      40.63
C      29.46      22.84      40.70
C      24.76      23.89      35.28
C      24.72      28.01      44.09
C      24.77      24.97      23.78
C      24.76      26.36      23.88
C      24.78      26.92      22.61
C      24.80      25.89      21.66
C      24.80      26.23      20.28
C      24.79      27.59      19.86
C      24.78      28.60      20.87
C      24.77      28.27      22.23
C      24.73      27.02      25.12
C      24.71      26.25      26.29
C      24.72      24.82      26.25
C      24.75      24.19      24.97
C      23.65      23.69      21.92
C      24.13      22.55      21.26
C      25.51      22.55      21.29
C      25.96      23.70      21.96
C      26.39      21.56      20.83
C      27.76      21.72      21.06
C      28.27      22.85      21.76
C      27.35      23.86      22.19
C      22.26      23.83      22.11
C      21.35      22.83      21.66
C      21.89      21.71      20.95
C      23.27      21.56      20.76
C      24.79      24.56      22.34
C      29.63      22.96      22.02
C      19.99      22.86      21.98
C      24.72      24.08      27.43
C      24.77      27.95      18.50
C       8.51      16.97      23.74
C       8.47      15.58      23.88
C       8.48      14.99      22.63
C       8.52      15.99      21.65
C       8.54      15.62      20.28
C       8.50      14.25      19.89
C       8.46      13.27      20.92
C       8.45      13.63      22.28
C       8.44      14.97      25.15
C       8.45      15.78      26.29
C       8.48      17.20      26.20
C       8.51      17.78      24.90
C       9.70      18.19      21.90
C       9.26      19.33      21.23
C       7.88      19.34      21.20
C       7.40      18.20      21.86
C       7.02      20.32      20.68
C       5.64      20.17      20.86
C       5.10      19.06      21.58
C       6.00      18.06      22.05
C      11.09      18.03      22.14
C      12.01      19.03      21.72
C      11.51      20.16      21.01
C      10.14      20.32      20.77
C       8.54      17.34      22.30
C       3.73      19.00      21.85
C      13.38      18.93      21.99
C       8.49      18.00      27.36
C       8.54      13.87      18.54
C       8.44      16.92      38.86
C       8.47      15.52      38.76
C       8.47      14.97      40.03
C       8.44      15.99      40.98
C       8.43      15.66      42.36
C       8.46      14.29      42.78
C       8.50      13.29      41.77
C       8.50      13.62      40.40
C       8.50      14.87      37.52
C       8.50      15.64      36.35
C       8.47      17.06      36.39
C       8.44      17.69      37.67
C       7.25      18.18      40.69
C       7.70      19.33      41.35
C       9.08      19.34      41.37
C       9.56      18.20      40.71
C       9.93      20.33      41.86
C      11.31      20.20      41.64
C      11.85      19.09      40.94
C      10.95      18.07      40.49
C       5.87      18.02      40.46
C       4.94      19.02      40.88
C       5.45      20.15      41.58
C       6.82      20.31      41.81
C       8.42      17.33      40.30
C      13.20      19.08      40.58
C       3.57      18.91      40.62
C       8.47      17.80      35.20
C       8.44      13.93      44.13
C       8.47       4.40       2.10
C       8.47       3.21       1.32
C       8.48       3.31      61.20
C       8.48       4.57      60.55
C       8.48       5.73       0.03
C       8.47       5.65       1.43
C       8.48       0.93      61.02
C       8.48       0.82       1.10
C      24.72      37.48      60.52
C      24.73      38.67      61.31
C      24.73      38.57       1.42
C      24.74      37.31       2.07
C      24.74      36.15       1.28
C      24.73      36.23      61.19
C      24.74       1.29       1.61
C      24.74       1.41       0.21
C      24.73      24.29      32.77
C      24.73      23.10      31.99
C      24.73      23.19      30.55
C      24.73      24.45      29.90
C      24.73      25.61      30.69
C      24.73      25.53      32.10
C      24.73      20.81      30.38
C      24.73      20.71      31.78
C       8.48      17.59      29.87
C       8.48      18.78      30.65
C       8.48      18.69      32.08
C       8.47      17.43      32.73
C       8.47      16.27      31.94
C       8.48      16.35      30.54
C       8.48      21.07      32.26
C       8.48      21.18      30.86
C       1.59       1.62      10.02
C       0.55       2.13       9.19
C      31.75       1.57       9.30
C      31.49       0.49      10.17
C       0.02      39.64      10.98
C       1.31       0.53      10.89
C      30.93       3.11       7.67
C      32.22       3.65       7.54
C      15.40       1.64      52.69
C      16.42       2.21      53.51
C      17.74       1.67      53.45
C      18.04       0.54      52.65
C      17.01      39.62      51.87
C      15.71       0.51      51.90
C      18.49       3.29      55.03
C      17.19       3.81      55.12
C      31.65       0.62      52.70
C       0.15       0.04      53.52
C       1.47       0.57      53.46
C       1.78       1.70      52.66
C       0.76       2.28      51.89
C      31.96       1.75      51.91
C       2.21      38.59      55.04
C       0.91      38.09      55.13
C      17.83       0.60      10.02
C      16.78       0.11       9.19
C      15.49       0.69       9.32
C      15.25       1.75      10.22
C      16.29       2.22      11.03
C      17.58       1.66      10.91
C      14.63      38.82       7.70
C      15.91      38.27       7.53
C      17.84      21.45      40.67
C      16.80      21.95      39.84
C      15.50      21.37      39.95
C      15.25      20.29      40.83
C      16.29      19.81      41.64
C      17.57      20.37      41.54
C      14.66      22.91      38.33
C      15.94      23.46      38.19
C      31.64      21.48      21.99
C       0.16      22.01      22.82
C       1.47      21.45      22.72
C       1.74      20.37      21.86
C       0.71      19.85      21.06
C      31.92      20.39      21.14
C       2.27      23.00      24.35
C       0.98      23.53      24.48
C      15.37      20.42      21.97
C      16.41      19.91      22.80
C      17.71      20.49      22.70
C      17.97      21.57      21.84
C      16.93      22.07      21.03
C      15.65      21.51      21.11
C      18.54      18.95      24.32
C      17.25      18.39      24.45
C       1.57      20.40      40.67
C       0.54      19.89      39.83
C      31.74      20.46      39.94
C      31.48      21.54      40.81
C       0.01      22.04      41.62
C       1.30      21.48      41.53
C      30.91      18.93      38.31
C      32.20      18.38      38.17
C       8.35      11.92      17.06
C       7.71      12.28      15.84
C       7.75      11.37      14.74
C       8.37      10.11      14.84
C       8.97       9.76      16.07
C       8.95      10.65      17.16
C       6.49      12.90      13.40
C       6.42      13.79      14.48
C       8.61      11.96      45.60
C       9.25      12.29      46.83
C       9.22      11.34      47.90
C       8.60      10.08      47.75
C       8.00       9.76      46.52
C       8.01      10.68      45.46
C      10.46      12.84      49.28
C      10.53      13.76      48.23
C      24.58      29.96      45.58
C      23.95      29.61      46.81
C      24.02      30.52      47.91
C      24.66      31.77      47.79
C      25.25      32.11      46.56
C      25.20      31.22      45.47
C      22.75      29.01      49.26
C      22.65      28.12      48.18
C      24.88      29.93      17.03
C      25.51      29.61      15.80
C      25.45      30.55      14.72
C      24.82      31.81      14.87
C      24.22      32.12      16.11
C      24.26      31.19      17.17
C      26.71      29.07      13.33
C      26.80      28.15      14.39
N       8.48       2.17      60.47
N       8.47       1.95       1.86
N       8.46       4.51       3.43
N       8.49       4.78      59.23
N      24.74       0.06       2.16
N      24.73       0.27      60.77
N      24.70      37.37      59.19
N      24.75      37.10       3.39
N      24.73      22.05      29.83
N      24.73      21.84      32.53
N      24.73      24.40      34.10
N      24.73      24.66      28.58
N       8.48      19.83      32.81
N       8.48      20.04      30.11
N       8.48      17.48      28.54
N       8.47      17.22      34.05
N      30.75       2.09       8.54
N       0.73       3.15       8.29
N       2.83       2.06      10.10
N      30.24       0.16      10.42
N      18.71       2.24      54.21
N      16.20       3.26      54.37
N      14.14       2.05      52.60
N      19.30       0.18      52.51
N       2.44      39.65      54.22
N      32.43      38.65      54.37
N      30.38       0.24      52.61
N       3.05       2.06      52.54
N      14.47       0.18       8.58
N      16.94      38.75       8.28
N      19.08       0.15      10.06
N      14.01       2.11      10.51
N      14.49      21.88      39.20
N      16.96      22.97      38.94
N      19.08      21.90      40.74
N      14.00      19.95      41.09
N       2.46      21.98      23.48
N      32.48      23.02      23.72
N      30.38      21.91      21.92
N       3.00      20.04      21.65
N      18.71      19.97      23.46
N      16.24      18.89      23.70
N      14.13      19.97      21.89
N      19.22      21.91      21.59
N      30.74      19.95      39.18
N       0.71      18.88      38.93
N       2.82      19.95      40.73
N      30.23      21.87      41.06
N       7.14      11.73      13.57
N       7.02      13.46      15.66
N       8.35      12.64      18.18
N       8.40       9.33      13.76
N       9.82      11.67      49.07
N       9.93      13.46      47.04
N       8.59      12.71      44.50
N       8.57       9.27      48.81
N      23.42      30.17      49.08
N      23.24      28.44      46.99
N      24.56      29.24      44.45
N      24.71      32.55      48.87
N      26.05      30.23      13.54
N      26.21      28.45      15.58
N      24.88      29.18      18.13
N      24.76      32.60      13.81
O       8.47      39.25       1.68
O      24.74       2.63      60.94
O      24.72      19.49      32.36
O       8.48      22.40      30.28
O      32.43       4.66       6.66
O      16.94       4.83      55.97
O       0.64      37.06      55.97
O      16.10      37.27       6.65
O      16.14      24.47      37.32
O       0.76      24.54      25.36
O      17.05      17.38      25.32
O      32.40      17.38      37.29
O       5.75      14.96      14.35
O      11.19      14.93      48.40
O      21.96      26.96      48.32
O      27.48      27.00      14.21
