11

Mn       9.95       6.94      10.65
O      11.76       7.56      10.08
O       9.42       8.88      10.81
O      10.46       6.63      12.66
C       7.25       6.24       9.67
C      10.41       4.63       8.80
C      12.13       7.95       8.91
C       8.98       9.54       9.80
C      10.05       6.86      13.85
O      10.37       5.07      10.02
O       8.02       6.43      10.70
