11

Mn       3.19      14.03      17.30
C       4.17      16.63      18.18
C       3.11      13.97      14.03
O       2.79      12.16      17.95
C       1.01      15.06      19.07
O       3.72      15.97      17.17
C       5.89      13.32      18.29
O       5.12      13.52      17.27
O       1.38      14.65      17.90
O       2.63      13.72      15.20
C       2.72      11.73      19.17
