18

H       5.63       0.83       6.36
H       5.62      -0.79      10.35
H       9.35      -0.04       8.33
C       8.33      -0.93      10.66
C       6.17       0.47       7.23
C       8.34       0.88       6.01
C       6.17      -0.45       9.48
C       5.47       0.01       8.35
C       7.57      -0.46       9.47
C       7.57       0.44       7.22
C       3.98       0.02       8.35
O       7.73      -1.01      11.78
C       8.26      -0.02       8.34
O       3.40      -0.83       9.11
O       7.71       1.01       4.91
O       3.41       0.87       7.59
O       9.60       1.07       6.12
O       9.56      -1.21      10.51
