594

H       3.32      22.52      17.89
H       4.37      20.40      17.90
H       4.37      15.56      18.07
H       3.33      13.44      18.10
H      34.78      15.27      17.97
H      34.78      20.68      18.01
H       1.20      17.99      20.68
H      32.65      17.85      22.51
H      31.61      17.88      20.39
H       1.21      17.94      15.27
H      31.62      18.05      15.55
H      32.66      18.06      13.43
H       3.98      17.96      17.09
H       3.99      18.00      18.86
H      32.00      17.09      17.95
H      32.00      18.86      17.99
H      18.24       3.22      22.53
H      18.38       4.31      20.43
H      18.28       4.40      15.59
H      18.19       3.38      13.45
H      17.96      34.82      15.24
H      17.84      34.74      20.60
H      20.75       1.16      17.96
H      22.53      32.59      17.77
H      20.40      31.58      17.78
H      15.34       1.24      17.91
H      15.57      31.64      17.95
H      13.46      32.71      17.97
H      17.44       4.06      18.02
H      19.20       3.90      17.99
H      17.96      32.01      16.99
H      18.00      31.98      18.77
H      22.56      18.22       3.21
H      20.46      18.36       4.30
H      15.61      18.27       4.40
H      13.47      18.18       3.38
H      15.26      17.95      34.82
H      20.63      17.83      34.73
H      17.99      20.74       1.15
H      17.79      22.52      32.59
H      17.81      20.38      31.57
H      17.94      15.32       1.23
H      17.97      15.55      31.64
H      17.99      13.44      32.70
H      18.04      17.42       4.06
H      18.01      19.19       3.89
H      17.01      17.95      32.00
H      18.78      17.99      31.97
H      20.97       4.90       0.26
H      22.00       2.77       0.27
H      22.00      33.18       0.51
H      20.96      31.06       0.55
H      17.17      32.89       0.34
H      17.18       3.07       0.43
H      18.79       0.25       3.07
H      14.98       0.30       4.84
H      13.97       0.40       2.72
H      18.88       0.43      32.94
H      14.05       0.33      33.12
H      15.14       0.36      31.01
H      21.62       0.33      34.73
H      21.62       0.38       1.27
H      14.38      34.73       0.32
H      14.39       1.27       0.29
H       0.27      20.97       4.87
H       0.29      22.01       2.75
H       0.54      22.00      33.16
H       0.58      20.96      31.03
H       0.37      17.18      32.87
H       0.45      17.18       3.05
H       3.09      18.79       0.23
H       4.86      14.98       0.29
H       2.74      13.97       0.38
H      32.96      18.89       0.41
H      33.14      14.05       0.31
H      31.04      15.15       0.34
H      34.76      21.62       0.30
H       1.29      21.62       0.36
H       0.35      14.38      34.71
H       0.31      14.40       1.24
H       4.91       0.22      20.92
H       2.79       0.22      21.96
H      33.20       0.48      21.96
H      31.07       0.53      20.92
H      32.91       0.35      17.13
H       3.08       0.45      17.14
H       0.38       3.08      18.80
H       0.20       4.91      15.02
H       0.26       2.79      13.97
H       0.31      32.91      18.79
H       0.54      33.20      13.97
H       0.53      31.08      15.00
H       0.34      34.70      21.57
H       0.40       1.23      21.59
H      34.76       0.35      14.34
H       1.29       0.41      14.36
H      33.89      15.07      10.16
H      33.56      16.36      11.29
H      35.04      15.38      11.42
H      33.88      16.23       6.72
H      33.03      16.14       8.23
H      34.33      14.98       7.87
H       1.88      20.06      11.57
H       1.88      20.89      10.05
H       3.20      19.77      10.45
H       2.59      19.30       6.61
H       3.42      19.50       8.11
H       2.11      20.61       7.68
H       1.01      16.77       5.91
H       1.70      17.65      12.40
H       2.56      15.16      25.83
H       2.96      16.50      24.77
H       1.51      15.52      24.49
H       2.09      16.01      29.32
H       3.14      16.04      27.93
H       1.78      14.89      28.00
H      34.74      20.24      24.35
H      34.59      20.99      25.90
H      33.31      19.91      25.31
H      33.54      19.26      29.17
H      32.85      19.53      27.61
H      34.13      20.61      28.21
H      35.04      16.78      29.98
H       1.68      18.33      23.55
H      10.21      33.94      15.01
H      11.35      33.60      16.30
H      11.46      35.09      15.33
H       6.77      33.89      16.17
H       8.29      33.06      16.08
H       7.92      34.36      14.92
H      11.60       1.89      20.03
H      10.08       1.88      20.85
H      10.48       3.21      19.75
H       6.64       2.58      19.27
H       8.13       3.42      19.48
H       7.71       2.09      20.58
H       5.94       1.02      16.72
H      12.42       1.75      17.62
H      25.86       2.53      15.13
H      24.81       2.91      16.47
H      24.53       1.46      15.48
H      29.35       2.05      15.97
H      27.97       3.10      16.01
H      28.04       1.75      14.86
H      24.39      34.66      20.19
H      25.95      34.51      20.94
H      25.36      33.24      19.85
H      29.22      33.49      19.20
H      27.66      32.79      19.47
H      28.26      34.06      20.55
H      30.02      35.00      16.73
H      23.59       1.61      18.31
H      15.05      10.19      33.93
H      16.33      11.33      33.60
H      15.37      11.45      35.08
H      16.21       6.75      33.89
H      16.12       8.27      33.05
H      14.96       7.90      34.35
H      20.06      11.59       1.89
H      20.89      10.06       1.88
H      19.78      10.47       3.21
H      19.30       6.63       2.58
H      19.51       8.12       3.42
H      20.61       7.69       2.09
H      16.76       5.93       1.01
H      17.65      12.41       1.75
H      15.16      25.85       2.52
H      16.50      24.79       2.90
H      15.51      24.52       1.45
H      16.01      29.34       2.04
H      16.05      27.95       3.09
H      14.89      28.03       1.74
H      20.22      24.38      34.66
H      20.97      25.93      34.51
H      19.89      25.35      33.24
H      19.25      29.21      33.49
H      19.51      27.65      32.79
H      20.60      28.24      34.07
H      16.77      30.01      35.00
H      18.34      23.58       1.61
H      16.03      33.14      25.19
H      17.23      33.57      24.02
H      15.81      34.61      24.23
H      15.13      34.88      28.35
H      15.59      33.23      27.84
H      14.81      34.37      26.72
H      19.73       2.75      25.25
H      21.07       1.64      25.62
H      20.41       2.74      26.84
H      20.17       0.14      29.47
H      19.77       1.87      29.33
H      21.03       1.12      28.33
H      17.06      34.06      29.72
H      19.65       0.82      23.75
H      14.42       0.46      10.66
H      15.53       1.16      11.80
H      15.38      34.64      11.66
H      14.88       0.55       7.10
H      14.48       1.44       8.55
H      14.41      34.89       8.51
H      20.45      35.01      11.39
H      21.00       0.85      10.13
H      20.86      34.34       9.83
H      19.82       0.70       6.44
H      20.59      34.79       7.51
H      20.68       1.30       7.83
H      16.80       1.76       6.32
H      18.14      34.30      12.43
H      33.42      10.12      20.81
H      33.02      11.17      19.46
H      34.47      11.46      20.45
H      33.89       6.64      19.96
H      32.84       8.02      19.92
H      34.20       7.95      21.08
H       1.24      11.60      15.72
H       1.40      10.04      14.98
H       2.67      10.65      16.07
H       2.46       6.78      16.73
H       3.14       8.35      16.44
H       1.87       7.73      15.37
H       0.94       5.98      19.20
H      34.30      12.40      17.63
H       2.09      25.79      20.90
H       2.42      24.65      19.61
H       0.94      24.53      20.58
H       2.10      29.23      19.76
H       2.95      27.71      19.84
H       1.65      28.07      21.00
H      34.10      24.38      15.91
H      34.11      25.91      15.08
H      32.79      25.51      16.19
H      33.42      29.35      16.66
H      32.57      27.85      16.47
H      33.89      28.27      15.36
H      34.98      30.04      19.20
H      34.28      23.56      18.32
H      10.68      14.41       0.45
H      11.82      15.52       1.16
H      11.68      15.38      34.63
H       7.12      14.88       0.55
H       8.57      14.48       1.44
H       8.53      14.41      34.89
H      11.42      20.44      35.00
H      10.16      20.99       0.84
H       9.86      20.85      34.33
H       6.46      19.82       0.69
H       7.54      20.59      34.78
H       7.86      20.68       1.29
H       6.35      16.80       1.75
H      12.45      18.13      34.29
H      25.21      16.02      33.13
H      24.04      17.22      33.56
H      24.25      15.80      34.61
H      28.37      15.13      34.86
H      27.87      15.58      33.22
H      26.75      14.81      34.36
H      25.27      19.73       2.74
H      25.64      21.06       1.63
H      26.86      20.41       2.73
H      29.49      20.18       0.12
H      29.35      19.78       1.85
H      28.34      21.03       1.10
H      29.74      17.06      34.04
H      23.77      19.64       0.81
C      34.82      17.98      16.66
C      33.40      18.00      16.71
C      33.40      17.95      19.24
C      34.82      17.97      19.29
C       0.18      17.97      20.60
C      34.65      17.92      21.81
C      33.25      17.88      21.68
C      32.63      17.90      20.43
C      32.64      18.04      15.52
C      33.26      18.04      14.26
C      34.66      18.00      14.14
C       0.19      17.97      15.35
C       1.16      19.29      17.97
C       2.58      19.24      17.95
C       2.58      16.71      18.00
C       1.16      16.66      17.98
C       3.35      15.52      18.05
C       2.73      14.27      18.07
C       1.33      14.14      18.03
C       0.56      15.35      17.99
C       0.56      20.60      17.99
C       1.32      21.81      17.95
C       2.72      21.69      17.91
C       3.34      20.43      17.92
C       0.37      17.98      17.98
C       3.34      17.98      17.98
C      32.64      17.97      17.97
C      16.71      34.83      17.92
C      16.74      33.41      17.92
C      19.27      33.38      17.87
C      19.34      34.79      17.92
C      20.66       0.14      17.92
C      21.85      34.60      17.87
C      21.71      33.20      17.81
C      20.45      32.60      17.82
C      15.54      32.67      17.95
C      14.29      33.30      17.96
C      14.19      34.70      17.94
C      15.40       0.22      17.92
C      18.06       1.14      19.26
C      18.20       2.55      19.24
C      18.17       2.60      16.71
C      18.07       1.19      16.64
C      18.21       3.38      15.53
C      18.16       2.78      14.27
C      18.08       1.38      14.14
C      18.03       0.60      15.33
C      17.98       0.51      20.55
C      18.06       1.25      21.77
C      18.21       2.64      21.69
C      18.29       3.29      20.45
C      18.04       0.37      17.94
C      18.26       3.34      17.99
C      17.99      32.63      17.89
C      17.95      16.69      34.83
C      17.94      16.72      33.41
C      17.90      19.26      33.37
C      17.94      19.33      34.79
C      17.95      20.64       0.14
C      17.89      21.84      34.59
C      17.83      21.70      33.19
C      17.84      20.43      32.59
C      17.97      15.53      32.66
C      17.99      14.28      33.29
C      17.97      14.17      34.70
C      17.95      15.39       0.21
C      19.28      18.05       1.14
C      19.27      18.19       2.55
C      16.74      18.15       2.60
C      16.67      18.05       1.18
C      15.56      18.20       3.37
C      14.30      18.15       2.77
C      14.16      18.07       1.38
C      15.35      18.02       0.59
C      20.57      17.96       0.51
C      21.79      18.04       1.24
C      21.71      18.20       2.64
C      20.47      18.27       3.28
C      17.96      18.02       0.36
C      18.01      18.24       3.33
C      17.91      17.98      32.63
C      17.23       0.36      34.29
C      15.81       0.35      34.30
C      15.77       0.39       1.59
C      17.19       0.36       1.67
C      17.77       0.31       2.98
C      17.00       0.32       4.18
C      15.59       0.35       4.03
C      14.99       0.40       2.77
C      15.07       0.33      33.10
C      15.72       0.34      31.86
C      17.13       0.36      31.77
C      17.86       0.39      32.99
C      18.80       1.68       0.38
C      20.22       1.63       0.35
C      20.21      34.33       0.42
C      18.80      34.28       0.38
C      20.98      33.14       0.48
C      20.36      31.89       0.51
C      18.96      31.77       0.44
C      18.19      32.97       0.37
C      18.20       2.99       0.40
C      18.97       4.19       0.35
C      20.36       4.07       0.29
C      20.98       2.81       0.30
C      18.00       0.36       0.37
C      20.98       0.36       0.38
C      15.03       0.37       0.32
C      34.31      17.23       0.34
C      34.33      15.81       0.32
C       1.62      15.77       0.37
C       1.69      17.19       0.34
C       3.00      17.78       0.29
C       4.20      17.00       0.31
C       4.05      15.60       0.34
C       2.79      15.00       0.38
C      33.12      15.08       0.30
C      31.89      15.72       0.31
C      31.80      17.13       0.33
C      33.02      17.87       0.36
C       0.40      18.80       1.65
C       0.37      20.22       1.60
C       0.44      20.22      34.31
C       0.41      18.80      34.26
C       0.51      20.98      33.12
C       0.54      20.36      31.87
C       0.47      18.96      31.74
C       0.40      18.19      32.95
C       0.41      18.20       2.97
C       0.37      18.97       4.17
C       0.30      20.37       4.04
C       0.31      20.99       2.79
C       0.39      18.01       0.34
C       0.41      20.98       0.33
C       0.34      15.03       0.35
C       0.38      34.30      17.17
C       0.43      34.35      15.75
C       0.34       1.64      15.76
C       0.36       1.69      17.18
C       0.36       3.00      17.78
C       0.29       4.21      17.01
C       0.24       4.08      15.61
C       0.28       2.83      15.00
C       0.50      33.16      14.99
C       0.50      31.91      15.61
C       0.41      31.78      17.00
C       0.36      32.99      17.77
C       1.69       0.37      18.76
C       1.64       0.32      20.18
C      34.35       0.40      20.18
C      34.30       0.38      18.76
C      33.16       0.46      20.94
C      31.91       0.49      20.32
C      31.78       0.43      18.92
C      32.99       0.38      18.15
C       3.00       0.39      18.16
C       4.21       0.34      18.92
C       4.08       0.26      20.32
C       2.83       0.26      20.94
C       0.37       0.37      17.97
C       0.37       0.35      20.94
C       0.40       0.38      14.99
C       0.62      17.77       7.70
C      35.01      16.91       8.47
C      35.09      16.90       9.91
C       0.64      17.87      10.61
C       1.39      18.81       9.83
C       1.46      18.70       8.40
C      34.35      15.87      10.73
C      34.02      16.02       7.78
C       2.13      19.93      10.52
C       2.44      19.57       7.66
C       0.69      17.63       6.28
C       0.80      17.82      12.02
C       0.35      17.76      28.21
C       1.23      16.89      27.49
C       1.32      16.96      26.06
C       0.63      17.99      25.33
C      35.04      18.90      26.06
C      34.83      18.73      27.47
C       2.13      15.98      25.26
C       2.10      15.91      28.23
C      34.39      20.06      25.36
C      33.79      19.57      28.16
C       0.19      17.62      29.62
C       0.79      18.10      23.92
C       7.74       0.63      17.73
C       8.51      35.03      16.86
C       9.95      35.12      16.85
C      10.64       0.67      17.83
C       9.87       1.40      18.78
C       8.43       1.46      18.67
C      10.77      34.40      15.82
C       7.83      34.04      15.96
C      10.55       2.13      19.90
C       7.68       2.43      19.54
C       6.32       0.69      17.58
C      12.06       0.84      17.78
C      28.26       0.30      17.72
C      27.53       1.19      16.85
C      26.10       1.27      16.93
C      25.37       0.57      17.95
C      26.11      34.98      18.85
C      27.52      34.77      18.68
C      25.30       2.09      15.95
C      28.27       2.06      15.88
C      25.41      34.32      20.01
C      28.21      33.73      19.52
C      29.67       0.15      17.57
C      23.96       0.73      18.05
C      17.76       7.72       0.63
C      16.90       8.50      35.03
C      16.88       9.94      35.12
C      17.86      10.63       0.67
C      18.81       9.85       1.40
C      18.70       8.42       1.46
C      15.85      10.76      34.39
C      16.00       7.81      34.03
C      19.93      10.53       2.13
C      19.57       7.67       2.43
C      17.62       6.30       0.69
C      17.81      12.05       0.84
C      17.75      28.24       0.30
C      16.89      27.52       1.18
C      16.96      26.08       1.26
C      17.98      25.36       0.56
C      18.89      26.09      34.98
C      18.72      27.51      34.77
C      15.98      25.28       2.08
C      15.91      28.26       2.05
C      20.05      25.39      34.31
C      19.56      28.19      33.73
C      17.61      29.65       0.14
C      18.09      23.95       0.72
C      17.81      35.21      28.17
C      16.91      34.76      27.15
C      17.28      34.82      25.76
C      18.38       0.39      25.35
C      19.17       1.01      26.38
C      18.99       0.66      27.75
C      16.54      33.99      24.75
C      15.54      34.28      27.53
C      20.15       2.09      26.01
C      20.05       0.97      28.77
C      17.52      34.92      29.53
C      18.70       0.61      23.97
C      17.51       0.54       7.82
C      16.38       0.47       8.71
C      16.56       0.32      10.13
C      17.88       0.16      10.67
C      19.00       0.16       9.78
C      18.82       0.39       8.37
C      15.41       0.34      11.10
C      14.97       0.54       8.18
C      20.39      35.20      10.32
C      20.03       0.49       7.48
C      17.29       0.91       6.47
C      18.04      35.21      12.06
C       0.40       7.74      18.21
C      34.75       8.46      19.08
C      34.66       9.89      19.00
C       0.12      10.62      17.98
C       0.94       9.89      17.07
C       1.16       8.48      17.25
C      33.84      10.69      19.99
C      33.88       7.72      20.06
C       1.59      10.59      15.91
C       2.20       7.79      16.41
C       0.56       6.33      18.36
C      35.19      12.03      17.87
C       0.13      28.25      18.20
C       0.97      27.48      19.06
C       0.90      26.04      19.07
C       0.11      25.35      18.10
C      34.60      26.12      17.15
C      34.54      27.56      17.27
C       1.63      25.22      20.10
C       1.97      28.17      19.96
C      33.86      25.44      16.03
C      33.56      28.30      16.40
C       0.07      29.67      18.35
C      35.19      23.93      18.14
C       7.85      17.51       0.53
C       8.73      16.38       0.46
C      10.15      16.56       0.31
C      10.69      17.87       0.15
C       9.81      19.00       0.16
C       8.40      18.82       0.38
C      11.12      15.40       0.33
C       8.20      14.97       0.53
C      10.35      20.39      35.19
C       7.51      20.03       0.48
C       6.49      17.29       0.89
C      12.09      18.03      35.21
C      28.19      17.81      35.19
C      27.17      16.90      34.75
C      25.78      17.27      34.81
C      25.37      18.37       0.38
C      26.40      19.17       1.00
C      27.78      18.99       0.64
C      24.77      16.54      33.99
C      27.56      15.53      34.27
C      26.03      20.15       2.08
C      28.79      20.05       0.95
C      29.55      17.53      34.90
C      24.00      18.69       0.61
N       0.93      12.86      18.04
N      35.06      17.97      12.85
N      35.05      17.92      23.10
N       0.92      23.10      17.99
N      18.02       0.98      12.86
N      12.90      35.11      17.91
N      23.14      34.99      17.87
N      17.84       0.77      23.01
N      12.88      18.01       0.98
N      17.94      12.89      35.11
N      17.90      23.13      34.98
N      23.04      17.83       0.77
N      18.56      30.48       0.43
N      17.64       0.50      30.53
N      17.46       0.13       5.44
N      18.58       5.49       0.41
N       0.47      18.56      30.45
N      30.55      17.64       0.48
N       5.46      17.46       0.12
N       0.41      18.58       5.46
N      30.49       0.43      18.52
N       0.36      30.49      17.39
N       0.29       5.50      17.41
N       5.50       0.40      18.53
