348

C       5.93      11.94      26.73
C       4.93      11.50       0.81
C       3.66      12.11       0.89
C       3.39      13.22       0.02
C       4.40      13.66      25.90
C       5.68      13.04      25.86
C       7.15      11.23      26.73
C       8.23      11.55       0.80
C       9.40      10.73       0.77
C       9.51       9.64      26.65
C       8.42       9.33      25.78
C       7.26      10.14      25.85
C      -4.97       9.03       8.85
C      -4.86      10.12       9.73
C      -3.69      10.92       9.80
C      -2.60      10.60       8.94
C      -2.71       9.50       8.02
C      -3.89       8.69       7.99
C      18.06       8.32       8.85
C      17.81       7.22       9.71
C      16.51       6.61       9.68
C      15.50       7.08       8.78
C      15.77       8.19       7.92
C      17.05       8.79       7.99
C      -2.03      19.93      17.79
C      -1.17      19.29      18.70
C      -1.05      17.88      18.77
C      -1.86      17.09      17.89
C      -2.73      17.73      16.94
C      -2.83      19.16      16.90
C      10.10       0.34      17.79
C       9.29       1.11      18.67
C       9.40       2.53      18.63
C      10.28       3.17      17.70
C      11.09       2.38      16.82
C      10.97       0.98      16.89
C       8.86       4.55      22.99
C       7.90       6.75      23.10
C       7.43       6.57      21.78
C       8.47       4.41      21.64
C       7.76       7.96      23.82
C       8.88       3.33      20.83
C      11.41      10.22       5.13
C      13.80       9.94       5.25
C      13.89      10.44       3.93
C      11.49      10.62       3.78
C      14.92       9.45       5.96
C      10.35      10.80       2.97
C      15.02       5.14      14.02
C      13.57       3.22      14.13
C      13.97       2.89      12.81
C      15.34       4.86      12.67
C      12.59       2.50      14.85
C      16.09       5.75      11.87
C       1.85      17.37      22.76
C       3.21      15.39      22.90
C       2.88      15.11      21.56
C       1.44      17.04      21.45
C       3.95      14.50      23.71
C       0.46      17.77      20.74
C       1.77       9.86       4.88
C      -0.62       9.67       5.02
C      -0.70      10.10       3.68
C       1.69      10.38       3.57
C      -1.76       9.46       5.83
C       2.81      10.86       2.85
C      -4.70      13.70      13.78
C      -3.65      15.85      13.93
C      -3.24      15.71      12.58
C      -4.21      13.51      12.47
C      -3.24      16.94      14.74
C      -4.35      12.30      11.75
C       5.93      11.94      16.73
C       4.93      11.50      17.62
C       3.66      12.11      17.70
C       3.39      13.22      16.83
C       4.40      13.66      15.90
C       5.68      13.04      15.86
C       7.15      11.23      16.73
C       8.23      11.55      17.61
C       9.40      10.73      17.58
C       9.51       9.64      16.65
C       8.42       9.33      15.78
C       7.26      10.14      15.85
C      -4.97       9.03      25.66
C      -4.86      10.12      26.53
C      -3.69      10.92      26.60
C      -2.60      10.60      25.74
C      -2.71       9.50      24.83
C      -3.89       8.69      24.80
C      18.06       8.32      25.66
C      17.81       7.22      26.52
C      16.51       6.61      26.49
C      15.50       7.08      25.59
C      15.77       8.19      24.73
C      17.05       8.79      24.80
C      -2.03      19.93       7.79
C      -1.17      19.29       8.70
C      -1.05      17.88       8.77
C      -1.86      17.09       7.89
C      -2.73      17.73       6.94
C      -2.83      19.16       6.90
C      10.10       0.34       7.79
C       9.29       1.11       8.67
C       9.40       2.53       8.63
C      10.28       3.17       7.70
C      11.09       2.38       6.82
C      10.97       0.98       6.89
C       8.86       4.55      12.99
C       7.90       6.75      13.10
C       7.43       6.57      11.78
C       8.47       4.41      11.64
C       7.76       7.96      13.82
C       8.88       3.33      10.83
C      11.41      10.22      21.94
C      13.80       9.94      22.05
C      13.89      10.44      20.74
C      11.49      10.62      20.59
C      14.92       9.45      22.77
C      10.35      10.80      19.78
C      15.02       5.14       4.02
C      13.57       3.22       4.13
C      13.97       2.89       2.81
C      15.34       4.86       2.67
C      12.59       2.50       4.85
C      16.09       5.75       1.87
C       1.85      17.37      12.76
C       3.21      15.39      12.90
C       2.88      15.11      11.56
C       1.44      17.04      11.45
C       3.95      14.50      13.71
C       0.46      17.77      10.74
C       1.77       9.86      21.69
C      -0.62       9.67      21.83
C      -0.70      10.10      20.49
C       1.69      10.38      20.38
C      -1.76       9.46      22.64
C       2.81      10.86      19.66
C      -4.70      13.70       3.78
C      -3.65      15.85       3.93
C      -3.24      15.71       2.58
C      -4.21      13.51       2.47
C      -3.24      16.94       4.74
C      -4.35      12.30       1.75
H       5.11      10.65       1.35
H       6.43       9.87      25.32
H       7.57      13.14      25.06
H       6.57      14.34      24.55
H       8.92      12.98       2.10
H       7.39      13.26       1.59
H      11.38       9.00       0.43
H      10.85       8.28      25.88
H       1.91      14.54      26.25
H       1.55      13.72       0.80
H       8.94       7.46      25.34
H      11.32      11.02       1.23
H       3.70      15.48      25.45
H       1.78      11.65       1.35
H      -5.69      10.40      10.25
H      17.23       9.65       7.47
H      19.51       7.00       7.20
H      -3.21       7.26       6.68
H      18.70       5.89      11.00
H      19.71       7.08      10.49
H      14.02       5.77       9.36
H      13.64       6.62       8.02
H      -0.71      11.21       8.36
H      -1.25      11.95       9.71
H      13.89       8.68       7.48
H      15.81       4.80      10.12
H      -0.79       9.19       7.57
H      -3.15      12.79      10.24
H      -0.52      19.87      19.23
H      11.61       0.39      16.35
H      -3.87      20.74      16.09
H      -4.39      19.28      15.57
H       7.72       0.99      19.98
H      -3.89      20.53      19.46
H       9.91       5.12      18.29
H      10.79       5.01      16.92
H      -2.25      15.15      17.32
H      -1.38      15.25      18.69
H      12.45       3.77      16.36
H       8.19       4.05      19.09
H      -3.95      16.22      16.48
H       0.29      16.48      19.23
H       9.41       3.84      23.47
H       6.91       7.30      21.29
H      10.52      10.09       5.61
H      14.78      10.51       3.43
H      15.37       5.97      14.50
H      13.59       2.08      12.32
H       1.48      18.19      23.25
H       3.21      14.27      21.08
H       2.66       9.77       5.37
H      -1.60      10.23       3.21
H      -5.22      12.97      14.27
H      -2.68      16.42      12.11
H       5.11      10.65      18.15
H       6.43       9.87      15.32
H       7.57      13.14      15.06
H       6.57      14.34      14.55
H       8.92      12.98      18.91
H       7.39      13.26      18.39
H      11.38       9.00      17.23
H      10.85       8.28      15.88
H       1.91      14.54      16.25
H       1.55      13.72      17.61
H       8.94       7.46      15.34
H      11.32      11.02      18.04
H       3.70      15.48      15.45
H       1.78      11.65      18.16
H      -5.69      10.40       0.25
H      17.23       9.65      24.28
H      19.51       7.00      24.00
H      -3.21       7.26      23.49
H      18.70       5.89       1.00
H      19.71       7.08       0.49
H      14.02       5.77      26.17
H      13.64       6.62      24.83
H      -0.71      11.21      25.17
H      -1.25      11.95      26.51
H      13.89       8.68      24.29
H      15.81       4.80       0.12
H      -0.79       9.19      24.38
H      -3.15      12.79       0.24
H      -0.52      19.87       9.23
H      11.61       0.39       6.35
H      -3.87      20.74       6.09
H      -4.39      19.28       5.57
H       7.72       0.99       9.98
H      -3.89      20.53       9.46
H       9.91       5.12       8.29
H      10.79       5.01       6.92
H      -2.25      15.15       7.32
H      -1.38      15.25       8.69
H      12.45       3.77       6.36
H       8.19       4.05       9.09
H      -3.95      16.22       6.48
H       0.29      16.48       9.23
H       9.41       3.84      13.47
H       6.91       7.30      11.29
H      10.52      10.09      22.42
H      14.78      10.51      20.24
H      15.37       5.97       4.50
H      13.59       2.08       2.32
H       1.48      18.19      13.25
H       3.21      14.27      11.08
H       2.66       9.77      22.18
H      -1.60      10.23      20.01
H      -5.22      12.97       4.27
H      -2.68      16.42       2.11
N       2.18      13.86       0.08
N      10.66       8.90      26.60
N       6.68      13.52      25.07
N       8.16      12.67       1.58
N       8.40       8.19      25.01
N      10.43      11.01       1.62
N       4.13      14.70      25.05
N       2.68      11.54       1.67
N      -1.44      11.33       8.99
N      14.28       6.46       8.73
N      -3.96       7.57       7.20
N      18.81       6.71      10.48
N      14.80       8.78       7.15
N      16.25       5.57      10.52
N      -1.68       9.20       7.17
N      -3.70      12.06      10.57
N      -1.80      15.72      17.95
N      10.35       4.54      17.65
N      -3.75      19.78      16.10
N       8.36       0.49      19.47
N      12.08       2.94      16.04
N       8.64       3.28      19.48
N      -3.48      16.98      16.09
N      -0.07      17.32      19.55
N       8.59       5.71      23.64
N       7.75       5.44      21.11
N      12.55       9.87       5.78
N      12.74      10.72       3.25
N      14.15       4.33      14.67
N      14.80       3.73      12.14
N       2.68      16.53      23.43
N       2.00      15.92      20.91
N       0.63       9.55       5.55
N       0.44      10.45       3.03
N      -4.37      14.83      14.45
N      -3.51      14.55      11.93
N       2.18      13.86      16.89
N      10.66       8.90      16.60
N       6.68      13.52      15.07
N       8.16      12.67      18.39
N       8.40       8.19      15.01
N      10.43      11.01      18.43
N       4.13      14.70      15.05
N       2.68      11.54      18.48
N      -1.44      11.33      25.80
N      14.28       6.46      25.54
N      -3.96       7.57      24.01
N      18.81       6.71       0.48
N      14.80       8.78      23.96
N      16.25       5.57       0.52
N      -1.68       9.20      23.98
N      -3.70      12.06       0.57
N      -1.80      15.72       7.95
N      10.35       4.54       7.65
N      -3.75      19.78       6.10
N       8.36       0.49       9.47
N      12.08       2.94       6.04
N       8.64       3.28       9.48
N      -3.48      16.98       6.09
N      -0.07      17.32       9.55
N       8.59       5.71      13.64
N       7.75       5.44      11.11
N      12.55       9.87      22.59
N      12.74      10.72      20.06
N      14.15       4.33       4.67
N      14.80       3.73       2.14
N       2.68      16.53      13.43
N       2.00      15.92      10.91
N       0.63       9.55      22.36
N       0.44      10.45      19.84
N      -4.37      14.83       4.45
N      -3.51      14.55       1.93
O       7.17       9.00      23.17
O       9.69       2.39      21.39
O      16.11       9.45       5.32
O       9.14      10.57       3.52
O      11.99       1.46      14.21
O      16.50       6.91      12.43
O       4.35      13.33      23.15
O      -0.14      18.80      21.38
O      -2.98       9.70       5.28
O       4.00      10.86       3.49
O      -2.41      17.86      14.19
O      -4.95      11.27      12.40
O       7.17       9.00      13.17
O       9.69       2.39      11.39
O      16.11       9.45      22.13
O       9.14      10.57      20.33
O      11.99       1.46       4.21
O      16.50       6.91       2.43
O       4.35      13.33      13.15
O      -0.14      18.80      11.38
O      -2.98       9.70      22.09
O       4.00      10.86      20.30
O      -2.41      17.86       4.19
O      -4.95      11.27       2.40
