144

Co       4.20       6.79      22.82
Co       5.33       8.93      23.48
Co       3.99       5.32       5.38
Co       2.67       7.43       5.07
Co       9.50       4.91      31.95
Co       8.01       6.91      32.25
Co       5.43       3.99      13.50
Co       8.89       5.59      13.54
C       6.37       9.39      21.77
C       5.01       6.64      20.93
C       5.36       6.85      25.28
C      11.00       8.68      24.07
C       2.77       7.60       3.02
C       4.67       4.95       3.47
C       9.93       5.52       6.69
C       4.40       7.34       7.17
C       8.53       7.46      34.15
C      10.33       4.85      33.83
C       6.90       4.70      31.07
C       9.47       6.76      29.94
C       9.93       5.84      15.29
C       5.21       2.66      15.12
C       7.81       3.67      12.39
C       6.35       6.73      12.95
C       5.77       6.25      26.55
C       6.03       4.92      28.10
C       6.01       3.67      28.93
C       5.75       3.96      30.43
C       9.01       4.98       7.69
C       8.29       3.77       9.18
C       8.15       2.59      10.10
C       7.22       2.78      11.31
C       9.92       7.34      28.67
C      10.09       8.60      27.06
C       9.82       9.71      26.08
C       9.70       9.19      24.63
C       4.88       7.87       8.44
C       4.92       8.24      10.46
C       4.55       8.19      11.91
C       5.79       8.12      12.83
C       7.13       9.75      20.58
C       7.68      10.56      18.78
C       5.30       2.43      17.61
C       4.94       1.74      16.28
C       2.80       7.79       1.57
C       5.03      11.87      36.72
C       3.27       3.49      35.57
C       2.58       4.84      35.22
C       2.34       6.03      16.53
C       3.72       6.70      17.89
C       4.97       7.34      18.45
C       5.65       6.51      19.57
C       8.89       7.89      35.49
C       7.09       4.86       0.46
C       6.62       5.12       1.86
C       5.19       4.59       2.10
N       6.64       6.83      27.38
N       6.82       5.98      28.37
N       7.99       5.66       8.25
N       7.52       4.87       9.20
N       2.73       7.00      28.06
N       2.84       7.81      27.03
N       5.44       9.08       8.58
N       5.48       9.31       9.87
N       8.35       9.25      20.31
N       8.70       9.78      19.15
N      10.14       7.37       0.76
N       3.87      11.22      36.59
N       2.10       5.34      17.66
N       2.99       5.77      18.53
N      10.06       8.49      35.77
N       8.28       5.31       0.02
O       5.71       8.04      25.01
O       4.67       6.17      24.45
O       3.90       7.28      21.14
O       5.58       6.11      21.96
O       2.70       7.52      23.52
O       3.71       9.40      24.14
O       6.87       8.62      22.69
O       5.16       9.81      21.96
O       9.82       6.71       6.25
O       2.56       4.77       6.34
O       5.35       5.67       4.32
O       3.51       4.54       3.87
O       4.65       6.13       6.86
O       3.65       8.07       6.45
O      10.15       6.94       3.61
O       3.68       8.12       3.79
O       6.71       5.88      31.52
O       8.05       4.14      31.16
O       2.53       5.53      32.87
O       9.23       4.21      33.55
O       9.97       5.67      30.37
O       8.57       7.38      30.60
O       7.55       6.63      33.93
O       9.17       7.90      33.11
O       8.86       4.33      12.24
O       7.20       3.89      13.48
O       5.39       3.93      15.27
O       5.29       2.25      13.90
O       5.54       5.83      13.39
O       7.60       6.56      12.66
O       1.77       4.79      14.54
O       9.06       6.71      14.89
O       5.37       5.05      26.96
O       9.21       3.81       8.25
O       9.30       8.35      28.08
O       4.52       7.33       9.59
O       6.69      10.57      19.66
O       3.73       8.46       0.93
O       3.34       6.89      16.64
O       8.10       7.77      36.54
F       5.01       2.83      28.46
F       7.22       3.03      28.78
F       8.02      11.83      31.10
F       4.58       4.70      30.55
F       7.69       1.51       9.35
F       1.09       2.27      10.55
F       6.98       1.54      11.87
F       6.01       3.31      10.91
F       8.63      10.32      26.42
F      10.83      10.65      26.18
F       9.27      10.23      23.82
F       8.75       8.18      24.59
F       3.83       9.33      12.22
F       3.71       7.10      12.13
F       5.42       8.52      14.10
F       6.76       9.00      12.39
F       4.40       3.46      17.82
F       6.58       2.95      17.55
F       6.03      10.50      16.27
F       8.12       9.64      16.13
F       4.59       3.71      35.92
F       5.71      11.69      34.49
F       3.50       5.88      35.32
F       9.89       5.12      36.11
F       5.87       7.48      17.41
F       4.65       8.61      18.90
F       6.96       6.93      19.68
F       5.68       5.18      19.23
F       7.49       4.50       2.74
F       6.65       6.48       2.08
F       5.17       3.20       1.97
F       4.32       5.13       1.17
