852

C       3.54       6.47       6.95
C       4.45       5.88       7.88
C       3.45       3.62       7.52
C       2.44       4.15       6.67
C       1.53       3.21       6.08
C       1.66       1.80       6.28
C       2.63       1.36       7.21
C       3.52       2.25       7.81
C       5.46       6.64       8.50
C       5.70       7.95       8.09
C       4.99       8.52       7.01
C       3.84       7.82       6.54
C       2.04       5.99       5.04
C       0.89       6.73       4.65
C       0.01       6.77       6.99
C       1.17       6.09       7.46
C      -1.04       7.13       7.85
C      -0.98       6.84       9.21
C       0.15       6.18       9.74
C       1.20       5.82       8.87
C       2.94       5.59       4.01
C       2.70       5.91       2.65
C       1.56       6.67       2.31
C       0.67       7.08       3.30
C       2.30       5.68       6.51
C      -0.16       7.16       5.58
C       4.43       4.46       8.23
C       5.34      21.47      56.88
C       5.25      22.60      57.75
C      20.31       0.10      57.74
C       7.90      21.81      56.82
C       9.23      21.59      56.31
C      10.33      22.43      56.66
C      22.69       0.59      57.70
C      21.42       0.83      58.21
C      16.57       0.36      58.12
C       2.81      22.66      57.55
C       2.85      21.59      56.63
C       4.10      20.98      56.35
C       6.71      20.51      55.07
C       6.76      19.15      54.65
C       7.00      18.35      57.00
C       6.91      19.68      57.49
C       7.20      17.25      57.86
C       7.34      17.44      59.24
C       7.26      18.73      59.78
C       7.03      19.83      58.91
C       6.60      21.50      54.05
C       6.53      21.15      52.68
C       6.57      19.79      52.31
C       6.68      18.80      53.28
C       6.72      20.87      56.55
C       6.89      18.02      55.57
C      19.01       0.51      58.28
C      -7.88      16.06      31.77
C      16.18      15.47      32.45
C      14.83      17.62      32.32
C      -9.28      18.31      31.66
C      -9.54      19.69      31.31
C     -10.79      20.35      31.57
C      13.39      19.60      32.26
C      13.61      18.27      32.62
C      16.22      14.11      32.84
C      17.28      13.27      32.48
C      -6.80      13.75      31.71
C      -6.80      15.16      31.40
C      -7.51      17.75      30.02
C      -6.26      18.34      29.68
C      -5.77      18.85      32.08
C      -6.99      18.23      32.48
C      -4.93      19.48      33.02
C      -5.29      19.56      34.36
C      -6.49      18.97      34.80
C      -7.31      18.29      33.87
C      -8.33      17.28      28.95
C      -7.92      17.40      27.60
C      -6.67      17.99      27.31
C      -5.84      18.44      28.34
C      -7.92      17.58      31.47
C      -5.33      18.88      30.68
C      14.95      16.22      32.79
C       7.90      16.05       6.56
C       6.79      16.77       7.07
C       8.00      18.95       6.80
C       9.17      18.29       6.35
C      10.30      19.11       6.04
C      10.35      20.53       6.26
C       9.14      21.09       6.74
C       7.99      20.34       6.97
C       5.62      16.09       7.48
C       5.53      14.70       7.38
C       6.56      13.92       6.80
C       7.71      14.65       6.37
C       9.91      16.24       5.12
C      10.95      15.27       5.17
C      11.06      15.42       7.66
C      10.02      16.40       7.67
C      11.73      15.07       8.86
C      11.46      15.73      10.06
C      10.48      16.74      10.09
C       9.73      17.00       8.92
C       9.51      16.70       3.84
C      10.16      16.28       2.67
C      11.15      15.28       2.74
C      11.53      14.77       3.98
C       9.25      16.75       6.40
C      11.51      14.75       6.43
C       6.78      18.24       7.22
C      -4.21      22.18      56.09
C      -4.08      20.83      56.38
C      -6.57      20.51      56.20
C      -6.76      21.89      55.95
C      -8.11      22.34      55.81
C      -9.26      21.54      56.08
C      -8.97      20.17      56.34
C      -7.67      19.65      56.36
C      -2.84      20.27      56.64
C      -1.67      21.12      56.75
C      -1.78      22.44      56.23
C       9.54       0.16      55.99
C       6.98       0.98      54.83
C       7.04       2.40      54.97
C       6.89       2.21      57.46
C       6.85       0.79      57.38
C       6.76       2.86      58.71
C       6.50       2.14      59.87
C       6.39       0.73      59.82
C       6.64       0.08      58.60
C       6.95       0.45      53.51
C       6.94       1.30      52.38
C       7.03       2.69      52.55
C       7.08       3.23      53.83
C       7.01       0.06      56.05
C       7.05       3.07      56.28
C      -5.22      19.92      56.41
C      -3.31       7.08      31.26
C      -2.18       7.85      31.49
C      -0.70       5.81      31.17
C      -1.81       4.93      31.19
C      -1.54       3.52      31.19
C      -0.23       2.95      31.12
C       0.83       3.89      31.06
C       0.61       5.27      31.08
C      -2.29       9.21      31.74
C      -3.61       9.81      32.04
C      -4.70       9.09      31.55
C      20.63       7.78      31.14
C      21.20       5.09      30.01
C      19.92       4.46      30.10
C      20.06       4.47      32.61
C      21.33       5.10      32.56
C      19.51       4.06      33.85
C      20.24       4.20      35.03
C      21.53       4.77      35.01
C      22.03       5.28      33.79
C      21.74       5.30      28.71
C      21.06       4.86      27.54
C      19.79       4.27      27.67
C      19.22       4.09      28.93
C      21.94       5.56      31.25
C      19.27       4.18      31.40
C      -0.84       7.28      31.30
C       5.33      20.62      43.93
C       5.46      19.22      43.68
C       7.87      19.28      44.31
C       7.85      20.70      44.40
C       9.08      21.35      44.71
C      10.29      20.62      44.92
C      10.25      19.22      44.74
C       9.06      18.55      44.48
C       4.38      18.47      43.20
C       3.13      19.05      43.07
C       2.89      20.36      43.56
C       4.02      21.16      43.87
C       6.36      22.51      45.17
C      18.79       1.12      44.86
C      19.24       0.69      42.43
C       6.80      22.07      42.68
C      19.43       1.21      41.12
C      19.77       0.36      40.06
C       7.33      21.77      40.28
C       7.14      21.25      41.57
C       6.32      22.13      46.54
C      18.77       0.31      47.57
C      18.59       1.67      47.24
C      18.58       2.06      45.90
C       6.58      21.48      44.07
C      18.89       1.65      43.49
C       6.71      18.48      43.87
C       2.65       7.48      69.02
C       1.49       8.27      69.23
C       0.10       6.22      69.61
C       1.22       5.37      69.42
C       0.99       3.97      69.47
C      -0.30       3.41      69.63
C      -1.39       4.31      69.64
C      -1.20       5.69      69.71
C       1.49       9.65      68.96
C       2.61      10.25      68.39
C       3.83       9.54      68.23
C       3.82       8.16      68.57
C       3.59       5.46      70.05
C       4.74       4.74      69.64
C       3.98       4.80      67.24
C       2.82       5.52      67.61
C       4.20       4.44      65.89
C       3.27       4.79      64.89
C       2.13       5.52      65.24
C       1.91       5.88      66.58
C       3.40       5.66      71.45
C       4.29       5.12      72.41
C       5.44       4.44      71.97
C       5.67       4.26      70.60
C       2.57       5.96      69.05
C       5.01       4.40      68.23
C       0.18       7.69      69.58
C      -6.78      16.69      19.09
C      -5.52      17.28      19.34
C      -6.57      19.54      19.60
C      -7.87      19.00      19.42
C      -8.97      19.91      19.46
C      -8.79      21.31      19.59
C      -7.46      21.79      19.58
C      -6.37      20.93      19.66
C      -4.33      16.54      19.18
C      -4.37      15.25      18.67
C      -5.60      14.58      18.44
C      -6.79      15.32      18.68
C      -9.01      16.93      20.08
C      14.92      16.34      19.68
C      15.39      16.89      17.27
C      -8.54      17.50      17.63
C      14.98      16.86      15.91
C      -9.37      17.43      14.91
C      -8.15      18.02      15.25
C      -7.74      18.06      16.59
C      -8.73      17.00      21.48
C      15.51      16.53      22.44
C      14.31      15.92      22.02
C      14.03      15.81      20.65
C      -8.05      17.53      19.07
C      14.50      16.26      18.27
C      -5.35      18.72      19.62
C      -4.81      22.25      42.98
C       7.69       0.52      42.02
C       5.19       0.59      42.30
C      -7.31      22.37      43.30
C      -8.51      21.99      43.95
C      -9.79      22.37      43.50
C       2.75       0.54      42.45
C       3.93       1.08      41.90
C       8.86       0.98      41.38
C      10.10       0.39      41.64
C      -2.35      22.14      42.61
C      -3.52      21.77      43.30
C      -5.85      21.21      44.97
C      -5.68      19.87      45.41
C      -6.21      18.98      43.14
C      -6.24      20.30      42.60
C      -6.46      17.85      42.34
C      -6.73      17.99      40.98
C      -6.72      19.26      40.38
C      -6.47      20.39      41.19
C      -5.81      22.23      45.97
C      -5.61      21.91      47.33
C      -5.34      20.58      47.71
C      -5.38      19.57      46.75
C      -6.05      21.54      43.49
C      -5.86      18.71      44.54
C       6.39       1.12      41.63
C       8.79      16.37      68.67
C       9.92      15.78      68.02
C      10.95      18.04      67.65
C       9.95      18.62      68.48
C      10.10      19.98      68.83
C      11.06      20.85      68.25
C      11.97      20.25      67.34
C      11.94      18.87      67.08
C      10.03      14.37      67.95
C       9.06      13.54      68.55
C       7.95      14.11      69.18
C       7.81      15.51      69.21
C       8.25      18.19      70.23
C       7.05      18.89      70.53
C       6.47      19.03      68.10
C       7.66      18.35      67.74
C       5.58      19.52      67.12
C       5.88      19.40      65.76
C       7.06      18.76      65.35
C       7.91      18.20      66.34
C       9.08      17.83      71.33
C       8.73      18.17      72.66
C       7.53      18.87      72.91
C       6.70      19.22      71.85
C       8.66      17.88      68.80
C       6.10      19.32      69.49
C      10.99      16.59      67.39
C      -3.13       6.34      18.40
C      20.98       5.65      17.71
C      22.42       3.59      17.56
C      -1.78       4.20      18.42
C      -0.68       3.41      18.83
C      -0.36       2.14      18.27
C      23.85       1.62      17.35
C      22.67       2.30      17.04
C      19.74       6.28      17.49
C      19.50       7.58      17.96
C      20.51       8.27      18.63
C      -3.40       7.67      18.83
C      -1.44       5.97      20.13
C      -0.33       6.79      20.48
C       0.35       7.00      18.08
C      -0.79       6.27      17.66
C       1.32       7.45      17.16
C       1.20       7.15      15.80
C       0.09       6.43      15.33
C      -0.91       6.04      16.25
C      -2.23       5.45      21.19
C      -1.93       5.74      22.54
C      -0.85       6.60      22.85
C      -0.06       7.11      21.82
C      -1.79       5.70      18.67
C       0.61       7.34      19.49
C      21.17       4.28      17.18
C       3.99       5.12      73.79
C       3.35       4.06      74.47
C       3.06       4.21       0.90
C       3.44       5.42       1.55
C       2.36       3.18       1.58
C       1.97       2.01       0.90
C       2.26       1.85      74.50
C       2.94       2.87      73.81
C       6.40      22.76      48.92
C       7.67      22.77      49.56
C       7.73      22.41      50.94
C       6.53      22.07      51.62
C       9.00      22.36      51.58
C      10.17      22.67      50.87
C      22.68       0.25      49.52
C      21.44       0.30      48.87
C      15.72      16.76      23.82
C      15.12      17.82      24.56
C      -9.66      17.98      25.93
C      -8.73      17.07      26.49
C     -10.19      19.08      26.66
C      14.08      19.98      26.06
C      13.71      19.82      24.72
C      14.23      18.75      23.97
C       9.45      17.75      73.78
C      10.05      18.65      74.70
C      10.32      18.20       1.07
C       9.93      16.88       1.42
C      10.96      19.08       1.98
C      11.30      20.39       1.60
C      11.02      20.83       0.30
C      10.40      19.97      74.34
C       6.74       0.02      48.40
C      -7.04      22.73      49.16
C       5.55       0.36      50.52
C       6.78       0.81      51.07
C       4.36       0.29      51.28
C      -9.41      22.58      50.71
C      -9.42      22.15      49.37
C      -8.25      22.22      48.60
C      -2.59       5.17      23.64
C      -1.93       4.25      24.51
C      22.76       4.13      25.85
C      21.66       4.92      26.26
C      -1.72       3.23      26.72
C      -0.62       2.48      26.28
C      -0.17       2.60      24.96
C      -0.82       3.48      24.08
C      11.49      21.42       6.03
C      12.87      21.15       5.72
C     -11.40      22.25       5.45
C       0.76       0.80       5.77
C     -10.09      22.01       4.96
C      -9.59      20.71       4.86
C     -10.37      19.64       5.31
C      13.47      19.86       5.74
C     -10.65      21.98      56.08
C       1.37       0.52      56.07
C      -0.05       0.68      55.94
C      11.66      22.33      56.14
C      -0.59       1.97      55.70
C       0.22       3.11      55.75
C       1.56       2.98      56.11
C       2.12       1.71      56.28
C       0.15       1.53      31.13
C      24.81       0.48      30.30
C      12.85      21.96      30.33
C     -11.20      21.69      31.20
C      12.36      20.94      29.46
C      11.28      21.18      28.60
C      10.66      22.44      28.58
C      23.72       0.68      29.42
C     -11.02      21.87      44.08
C     -11.19      20.75      44.97
C      12.69      20.59      45.60
C      11.56      21.25      45.04
C      12.56      19.68      46.68
C      13.59      18.79      47.00
C      14.74      18.76      46.20
C     -10.25      19.72      45.19
C      11.20      22.24      68.64
C      22.89       0.22      69.46
C      23.40       1.40      70.10
C      -0.58       2.00      69.57
C      22.68       1.95      71.19
C      21.37       1.52      71.48
C      20.76       0.58      70.65
C       8.93      22.73      69.64
C       0.79       1.37      18.67
C       1.92       1.80      19.43
C       2.76       0.81      20.03
C      -9.87      22.25      19.54
C       3.64       1.21      21.07
C       3.89       2.56      21.33
C       3.29       3.54      20.53
C       2.33       3.15      19.58
C       6.34      12.49       6.67
C       7.31      11.44       6.58
C       6.85      10.09       6.39
C       5.46       9.79       6.54
C       7.80       9.07       6.14
C       9.18       9.32       6.21
C       9.63      10.59       6.59
C       8.70      11.63       6.78
C      -1.17      21.48      55.34
C      -0.13      22.27      54.60
C       1.26      22.12      54.84
C       1.67      21.33      55.92
C      14.77       0.01      54.00
C      14.32       0.83      52.95
C      12.95       0.97      52.70
C      12.02       0.29      53.51
C      -4.36      10.24      30.71
C      -5.64      10.59      29.99
C      -6.34      11.84      30.18
C      -5.93      12.76      31.17
C      17.71      12.13      29.33
C      17.30      11.24      28.33
C      18.01      10.04      28.12
C      19.12       9.74      28.93
C      -1.07      21.56      42.91
C      -0.85      20.26      43.45
C       0.45      19.96      43.96
C       1.54      20.81      43.61
C       0.62      18.79      44.75
C      -0.40      17.84      44.87
C      -1.60      18.02      44.17
C      -1.81      19.22      43.47
C       6.66      11.05      65.52
C       6.05      12.00      66.36
C       5.20      11.55      67.42
C       4.91      10.15      67.50
C       4.72      12.53      68.32
C       4.89      13.90      68.07
C       5.64      14.32      66.95
C       6.26      13.37      66.13
C      -5.48      11.42      15.71
C      -4.48      11.42      16.69
C      -4.57      12.35      17.77
C      -5.60      13.34      17.73
C      -3.62      12.23      18.81
C      -2.53      11.34      18.71
C      -2.40      10.53      17.57
C      -3.40      10.53      16.59
C       0.21       6.03      11.15
C       0.05       4.82      11.87
C      -0.03       4.89      13.30
C       0.02       6.16      13.93
C      -0.14       3.68      14.03
C      -0.22       2.44      13.38
C      -0.18       2.38      11.98
C      -0.04       3.57      11.23
C       7.36      18.87      61.18
C       8.43      19.47      61.89
C       8.42      19.41      63.32
C       7.35      18.74      63.97
C       9.46      20.05      64.04
C      10.52      20.69      63.37
C      10.55      20.71      61.97
C       9.51      20.11      61.23
C      -6.80      19.06      36.18
C      -7.74      19.94      36.77
C      -7.77      20.07      38.20
C      -6.83      19.32      38.96
C      -8.74      20.91      38.80
C      -9.64      21.65      38.01
C      -9.59      21.55      36.61
C      -8.65      20.71      35.99
C      10.26      17.47      11.28
C      11.25      18.24      11.96
C      10.89      18.86      13.19
C       9.58      18.72      13.67
C      11.82      19.63      13.91
C      13.13      19.81      13.41
C      13.49      19.22      12.18
C      12.56      18.45      11.46
C       6.02       0.01      60.98
C       4.85       0.25      61.75
C      -7.91      22.28      62.95
C      -6.95      21.32      63.31
C      -9.04      22.48      63.77
C       2.56       0.64      63.40
C       2.70       1.36      62.20
C       3.83       1.17      61.38
C      22.32       4.79      36.18
C      22.68       3.64      36.95
C      -1.74       3.83      38.15
C      -1.37       5.14      38.52
C      -1.36       2.74      38.95
C      23.45       1.43      38.56
C      22.75       1.22      37.37
C      22.37       2.31      36.56
H       1.34       6.90       1.34
H      -0.16       7.61       3.02
H      -1.87       7.63       7.50
H      -1.75       7.13       9.82
H       2.02       5.36       9.28
H       3.76       5.03       4.25
H       0.78       3.55       5.49
H       2.70       0.38       7.49
H       4.21       1.88       8.47
H       3.26       8.27       5.84
H       6.08       6.23       9.21
H       6.48       8.45       8.54
H      -0.23       8.25       5.54
H      -1.11       6.74       5.23
H       4.26       4.36       9.31
H       5.43       4.05       8.01
H       6.54      19.51      51.33
H       6.71      17.82      52.98
H       7.26      16.29      57.50
H       7.49      16.62      59.84
H       6.95      20.75      59.33
H       6.57      22.49      54.32
H       9.39      20.83      55.65
H      23.47       1.14      58.08
H      21.31       1.57      58.91
H       4.12      20.20      55.69
H      16.51       1.17      58.75
H      14.51       0.35      57.77
H       6.02      17.36      55.44
H       7.79      17.46      55.29
H      19.02       0.40      59.37
H      18.89       1.58      58.06
H      -6.35      18.11      26.34
H      -4.95      18.87      28.09
H      -4.05      19.93      32.72
H      -4.67      20.04      35.02
H      -8.17      17.86      34.21
H      -9.24      16.86      29.16
H      -8.80      20.22      30.84
H      12.49      20.01      32.50
H      12.86      17.77      33.12
H      -6.03      15.53      30.85
H      15.43      13.70      33.34
H      17.21      12.28      32.72
H      -4.38      18.33      30.61
H      -5.13      19.93      30.42
H      14.84      16.21      33.87
H      14.11      15.66      32.35
H      11.64      14.95       1.90
H      12.28      14.07       4.01
H      12.48      14.36       8.85
H      11.99      15.49      10.89
H       8.99      17.71       8.99
H       8.78      17.42       3.77
H      11.07      18.64       5.59
H       9.06      22.09       6.94
H       7.16      20.82       7.33
H       8.44      14.14       5.87
H       4.83      16.61       7.88
H       4.67      14.27       7.73
H      11.28      13.69       6.51
H      12.60      14.87       6.38
H       6.59      18.47       8.27
H       5.94      18.62       6.62
H       7.02       3.33      51.74
H       7.12       4.25      53.93
H       6.80       3.89      58.77
H       6.37       2.64      60.76
H      -5.99      21.84      58.58
H      -5.67      22.22      53.37
H       4.36       0.52      55.49
H      -9.72      19.50      56.54
H      -7.54      18.66      56.57
H       9.47       1.14      56.10
H      -2.82      19.41      57.15
H      -0.81      20.64      57.23
H       7.99       3.62      56.38
H       6.22       3.79      56.28
H      -5.24      19.43      57.38
H      -5.07      19.15      55.64
H      19.28       3.94      26.84
H      18.31       3.64      29.00
H      18.59       3.61      33.89
H      19.84       3.85      35.91
H      -2.20       5.71      33.78
H      -2.50       5.74      28.61
H      22.82       2.88      31.28
H       1.80       3.57      31.00
H       1.42       5.90      31.06
H      19.79       7.24      31.17
H      -1.52       9.66      32.18
H      -3.64      10.90      32.16
H      18.34       4.75      31.45
H      19.02       3.11      31.41
H      -0.24       7.58      32.17
H      -0.40       7.75      30.41
H      18.51       2.38      47.97
H      18.49       3.06      45.68
H      19.33       2.21      40.94
H      19.91       0.74      39.12
H       7.25      20.24      41.68
H       6.46      21.15      46.79
H       9.11      22.37      44.74
H      11.10      18.65      44.73
H       9.09      17.54      44.33
H       3.87      22.15      44.08
H       4.49      17.48      42.95
H       2.37      18.47      42.71
H      17.93       2.11      43.23
H      19.65       2.43      43.49
H       6.97      17.99      42.93
H       6.53      17.71      44.63
H       6.09       4.03      72.64
H       6.50       3.73      70.31
H       5.04       3.91      65.61
H       3.43       4.53      63.92
H       1.07       6.42      66.79
H       2.55       6.14      71.78
H       1.79       3.33      69.35
H      22.79       3.99      69.59
H      -2.02       6.30      69.76
H       4.66       7.61      68.38
H       0.63      10.20      69.03
H       2.49      11.19      68.02
H       5.96       4.87      67.94
H       5.13       3.32      68.15
H      -0.55       8.05      68.84
H      -0.12       8.08      70.56
H      13.62      15.59      22.70
H      13.14      15.39      20.37
H      14.10      16.42      15.64
H      15.49      17.40      13.93
H      -6.84      18.50      16.80
H      -7.87      17.46      21.79
H      -9.91      19.54      19.34
H       5.33       0.01      19.50
H      -5.43      21.33      19.70
H      -7.69      14.89      18.45
H      -3.41      16.99      19.29
H      -3.48      14.83      18.39
H      14.38      15.21      18.00
H      13.52      16.75      18.18
H      -4.66      19.12      18.87
H      -4.88      18.82      20.61
H      -5.21      20.31      48.69
H      -5.26      18.60      47.07
H      -6.43      16.91      42.74
H      -6.89      17.14      40.43
H      -6.43      21.29      40.73
H       6.58       0.42      45.71
H      -8.42      21.44      44.79
H       1.87       0.89      42.07
H       3.86       1.77      41.15
H      -3.44      21.11      44.08
H       8.80       1.72      40.67
H      10.92       0.72      41.12
H      -4.93      18.12      44.54
H      -6.66      18.09      44.96
H       6.27       0.99      40.55
H       6.45       2.20      41.84
H       7.24      19.10      73.86
H       5.83      19.72      72.06
H       4.72      20.03      67.39
H       5.24      19.83      65.08
H       8.74      17.71      66.02
H       9.95      17.31      71.16
H       9.52      20.31      69.58
H      12.71      20.79      66.89
H      12.65      18.46      66.46
H       6.97      15.88      69.67
H      10.82      13.93      67.48
H       9.15      12.52      68.51
H       5.13      18.84      69.69
H       5.97      20.41      69.59
H      10.95      16.42      66.31
H      11.95      16.22      67.76
H      -0.61       6.83      23.81
H       0.74       7.71      22.07
H       2.15       7.97      17.47
H       1.95       7.45      15.17
H      -1.73       5.55      15.89
H      22.13       4.83      20.98
H      -0.12       3.78      19.59
H      23.99       0.70      16.91
H      22.00       1.87      16.40
H      -2.69       8.21      19.32
H      18.99       5.79      16.99
H      18.59       8.03      17.80
H       0.60       8.43      19.58
H       1.61       6.98      19.75
H      21.11       4.33      16.09
H      20.34       3.66      17.54
H       2.14       3.25       2.57
H       1.47       1.27       1.41
H       1.96       1.01      74.01
H       3.11       2.73      72.81
H       9.08      22.11      52.56
H      11.08      22.63      51.35
H      23.54       0.47      49.01
H      21.43       0.55      47.87
H      -9.94      19.23      27.64
H     -11.45      20.77      26.59
H      13.07      20.48      24.28
H      13.95      18.67      22.99
H      11.18      18.78       2.93
H      11.76      21.01       2.27
H      11.28      21.78       0.02
H      10.24      20.32      73.39
H       4.33       0.59      52.26
H     -10.26      22.53      51.27
H     -10.29      21.80      48.96
H      -8.30      21.92      47.63
H      23.14       3.13      27.69
H      -0.14       1.84      26.92
H       0.63       2.05      24.64
H      -0.48       3.54      23.11
H       3.10       0.01       4.71
H      -8.63      20.55       4.56
H      -9.97      18.70       5.34
H      13.01      19.08       6.19
H      23.56       2.09      55.51
H      -0.20       4.04      55.63
H       2.13       3.82      56.26
H       3.06       1.68      56.68
H      12.80      20.02      29.43
H      10.94      20.44      27.98
H       9.88      22.62      27.95
H      23.24       1.58      29.38
H      11.67      19.61      47.19
H      13.45      18.08      47.73
H      -9.71      18.03      46.35
H      -9.46      19.58      44.56
H      23.08       2.71      71.75
H      20.84       1.98      72.22
H      19.78       0.34      70.78
H       8.44      22.10      69.01
H       4.15       0.51      21.62
H       4.58       2.83      22.04
H       3.54       4.52      20.64
H       1.96       3.88      18.96
H       7.50       8.11       5.93
H       9.85       8.56       6.07
H      10.63      10.76       6.73
H       9.07      12.50       7.16
H       3.20      22.70      54.15
H      15.00       1.31      52.35
H      12.62       1.54      51.92
H      11.02       0.38      53.29
H      17.19      13.01      29.42
H      16.51      11.47      27.72
H      17.74       9.41      27.36
H      19.65       8.89      28.72
H       1.51      18.60      45.22
H      -0.24      16.97      45.40
H      -2.32      17.30      44.19
H      -2.68      19.30      42.93
H       4.22      12.26      69.17
H       4.50      14.59      68.71
H       5.79      15.32      66.79
H       6.84      13.69      65.35
H      -3.69      12.80      19.66
H      -1.83      11.30      19.46
H      -1.60       9.88      17.50
H      -3.32       9.89      15.80
H      -0.16       3.68      15.06
H      -0.31       1.58      13.92
H      -0.24       1.48      11.50
H      -0.00       3.49      10.21
H       9.47      20.06      65.06
H      11.27      21.14      63.90
H      11.32      21.17      61.48
H       9.56      20.15      60.21
H      -8.81      21.00      39.81
H     -10.33      22.26      38.45
H     -10.24      22.09      36.04
H      -8.65      20.65      34.97
H      11.57      20.08      14.79
H      13.80      20.37      13.93
H      14.43      19.37      11.81
H      12.85      18.06      10.56
H      -9.17      21.94      64.63
H       1.73       0.78      63.99
H       1.97       2.03      61.92
H       3.88       1.69      60.51
H      -0.83       2.88      39.82
H      23.73       0.64      39.14
H      22.52       0.26      37.08
H      21.89       2.11      35.69
N       4.04       6.38       0.79
N       4.32       6.24      74.49
N       5.37      22.09      50.90
N       5.30      22.44      49.65
N      -8.21      16.11      25.68
N      -8.55      15.95      24.44
N       9.38      16.09       0.46
N       9.13      16.50      74.22
N       7.87       0.86      50.27
N       7.86       0.45      49.03
N      21.08       5.74      25.36
N      21.52       5.89      24.14
N      -0.53       0.97       6.11
N      11.22      22.75       6.18
N      12.26      21.12      56.20
N      13.56      20.99      56.13
N     -10.82      22.74      31.97
N       1.21       1.16      31.91
N      11.81      22.23      44.14
N     -12.15      22.54      43.75
N       0.15       1.26      68.70
N      24.96       0.07      68.33
N     -10.92      21.95      18.73
N       0.76       0.04      18.38
N       4.62      10.84       6.65
N       5.04      12.07       6.67
N       0.77      20.66      56.55
N      -0.51      20.44      56.22
N      -4.80      12.50      31.75
N      -3.93      11.52      31.38
N       1.25      21.99      43.01
N       0.02      22.35      42.73
N       5.55       9.33      66.62
N       6.39       9.74      65.70
N      -6.50      13.25      16.71
N      -6.47      12.34      15.77
N       0.17       7.25      13.14
N       0.25       7.19      11.84
N       6.38      18.19      63.19
N       6.39      18.24      61.89
N      -5.96      18.52      38.29
N      -5.94      18.41      37.00
N       8.69      17.99      12.96
N       9.02      17.40      11.83
N      -5.87      21.14      62.51
N      -5.69      21.83      61.41
N      -1.73       6.17      37.72
N      -2.42       6.00      36.63
