14

C      23.81      13.75      12.78
C      21.21      12.25      14.91
Cu      22.77      14.57      15.27
O      21.13      13.52      14.95
Cu      24.00      12.43      15.27
C      25.55      14.75      15.64
C      22.96      13.25      17.76
O      23.11      14.66      13.34
O      22.28      11.54      14.96
O      22.51      14.31      17.20
O      24.25      12.68      13.34
O      25.63      13.48      15.59
O      23.65      12.34      17.20
O      24.49      15.46      15.59
