14

O      17.56       7.34      14.95
Cu      17.47       5.40      15.27
Cu      19.93       5.40      15.27
C      18.70       5.89      17.76
C      18.70       7.91      14.91
O      19.85       7.34      14.96
O      19.85       5.75      17.20
O      19.85       5.05      13.34
O      17.56       3.46      15.59
O      17.56       5.05      13.34
O      17.56       5.75      17.20
C      18.70       4.91      12.78
O      19.85       3.47      15.59
C      18.70       2.89      15.64
