400

H       5.61       3.36       6.30
H       5.40       1.88       2.36
H       1.90       2.37       4.62
H       7.47       1.67       6.04
H      10.98       2.35       3.84
H       7.27       3.58       2.29
H      21.46       1.93      25.98
H      21.46       3.63      22.12
H      25.07       2.55      23.96
H      19.60       3.52      26.09
H      15.94       2.68      24.19
H      19.55       2.11      22.12
H       7.56      18.09      21.76
H       7.13      15.49      25.04
H      10.97      16.51      23.67
H       5.46      16.11      21.41
H       1.97      17.67      23.18
H       5.64      17.94      25.20
H      19.98      16.96       2.46
H      20.27      18.34       6.43
H      16.51      18.04       4.57
H      22.01      18.41       2.49
H      25.59      17.08       4.22
H      21.96      16.52       6.26
H      30.13       8.37      12.28
H      28.13       8.57      15.98
H      29.12       4.84      14.32
H      28.18      10.20      12.15
H      29.12      13.94      13.81
H      30.08      10.43      15.91
H      28.09      26.24      31.10
H      30.15      26.18      34.79
H      28.84      29.83      33.16
H      30.20      24.56      30.96
H      29.50      20.75      32.61
H      28.29      24.19      34.70
H      14.75      10.60      35.80
H      13.16       9.24      32.13
H      13.42      13.35      32.92
H      13.53       8.57      36.45
H      15.05       4.75      35.60
H      14.99       7.67      32.59
H      13.00      24.83      16.27
H      14.65      24.47      12.41
H      13.79      21.04      14.66
H      14.49      26.74      16.15
H      13.81      30.16      13.80
H      13.15      26.35      12.18
H      30.36       0.17       1.63
H       2.94       1.28      37.41
H       2.20       0.11      35.46
H      29.62      29.97      37.49
H       0.18      30.18      34.26
H       0.96       1.89       2.55
H      27.58       3.74      20.68
H      23.71       3.61      18.98
H      24.59       4.45      16.92
H      28.45       4.58      18.63
H      26.77       4.67      15.53
H      25.62       2.40      21.68
H      12.79      13.07      26.48
H       9.08      14.51      27.92
H       9.54      13.57      30.05
H      13.25      12.14      28.62
H      11.24      12.80      31.59
H      11.42      14.55      25.08
H      14.33      19.57       8.05
H      18.18      18.66       9.53
H      17.61      19.67      11.63
H      13.76      20.57      10.15
H      15.62      20.35      13.13
H      15.92      17.97       6.87
H      10.95      20.60      17.64
H      13.74      22.15      20.41
H      13.12      20.46      21.98
H      10.33      18.91      19.20
H      11.96      18.26      22.36
H      13.04      23.42      18.28
H      24.90      14.87      11.16
H      28.65      13.95       9.44
H      27.97      14.99       7.40
H      24.22      15.92       9.13
H      26.38      16.65       6.37
H      26.91      14.18      12.54
H      16.45       2.95      31.29
H      13.64       5.88      30.13
H      14.17       5.47      27.83
H      16.98       2.54      29.00
H      15.19       3.84      26.18
H      15.00       4.21      33.02
H      30.36      15.64      20.13
H       3.18      16.21      18.31
H       2.41      15.07      16.35
H      29.59      14.51      18.17
H       0.31      14.39      15.05
H       1.17      17.26      21.04
H      28.02      19.15       1.21
H      24.18      18.84      37.26
H      24.85      20.36      35.54
H      28.69      20.66      37.29
H      26.49      22.23      34.98
H      26.28      17.40       1.95
H      13.43      30.79       7.02
H       9.50       0.43       8.47
H       9.95      29.94      10.31
H      13.88      29.35       8.87
H      11.59      27.88      10.95
H      11.90       1.41       5.88
H       9.96       6.22      35.50
H      12.75       3.10      34.88
H      12.49       2.42      37.16
H       9.69       5.53      37.77
H      11.65       3.04       1.67
H      11.60       5.35      32.86
H      24.54      30.90      30.77
H      28.25      30.25      28.84
H      27.50       0.56      26.96
H      23.79       1.21      28.89
H      25.84       2.30      26.18
H      26.59      30.07      31.99
H      13.98      30.90      20.81
H      17.17       2.22      19.22
H      16.77       1.28      17.06
H      13.57      29.97      18.65
H      15.10       0.09      15.59
H      15.11       1.77      22.14
H      30.54      19.55      26.30
H       3.56      19.71      27.72
H       2.91      21.30      29.38
H      29.89      21.13      27.97
H       1.01      23.09      29.94
H       1.29      17.96      25.48
H       2.59       4.12      11.67
H      29.68       4.21       9.98
H      30.55       3.33       7.93
H       3.46       3.24       9.62
H       1.58       1.97       6.96
H       0.37       4.39      13.06
H      14.11      15.87       1.56
H      17.50      17.26      37.25
H      16.87      15.95      35.36
H      13.48      14.55      37.46
H      14.90      14.67      34.24
H      15.62      17.85       2.37
C       5.73       2.67       4.30
C       5.07       3.03       5.50
C       3.67       2.90       5.64
C       2.91       2.46       4.53
C       3.54       2.10       3.31
C       4.94       2.20       3.22
C       7.15       2.67       4.20
C       7.94       2.08       5.22
C       9.34       1.97       5.10
C       9.97       2.46       3.94
C       9.22       3.06       2.90
C       7.82       3.16       3.05
C      21.23       2.82      24.07
C      21.96       2.29      25.17
C      23.37       2.22      25.15
C      24.06       2.63      24.00
C      23.37       3.13      22.87
C      21.96       3.25      22.93
C      19.80       2.84      24.09
C      19.08       3.21      25.25
C      17.68       3.17      25.30
C      16.96       2.75      24.16
C      17.65       2.37      22.98
C      19.06       2.43      22.96
C       7.14      16.77      23.36
C       7.98      17.46      22.46
C       9.38      17.38      22.57
C       9.95      16.55      23.56
C       9.13      15.83      24.46
C       7.73      15.97      24.37
C       5.74      16.97      23.33
C       4.99      16.58      22.20
C       3.60      16.82      22.13
C       2.97      17.46      23.22
C       3.70      17.86      24.36
C       5.09      17.62      24.40
C      20.34      17.64       4.43
C      19.54      17.33       3.31
C      18.14      17.49       3.34
C      17.53      17.94       4.53
C      18.30      18.23       5.68
C      19.70      18.10       5.61
C      21.76      17.48       4.38
C      22.50      17.93       3.26
C      23.89      17.77       3.18
C      24.58      17.17       4.26
C      23.87      16.73       5.40
C      22.47      16.87       5.44
C      29.13       8.68      14.12
C      29.70       7.91      13.09
C      29.74       6.50      13.17
C      29.13       5.86      14.27
C      28.52       6.61      15.30
C      28.56       8.02      15.23
C      29.13      10.10      14.04
C      28.59      10.76      12.91
C      28.54      12.16      12.84
C      29.12      12.92      13.88
C      29.70      12.29      15.00
C      29.66      10.89      15.09
C      29.13      26.00      32.94
C      28.49      26.73      31.91
C      28.34      28.13      32.01
C      28.91      28.81      33.11
C      29.59      28.10      34.12
C      29.66      26.70      34.05
C      29.24      24.59      32.85
C      29.84      23.97      31.72
C      29.96      22.57      31.64
C      29.43      21.77      32.67
C      28.81      22.36      33.79
C      28.74      23.76      33.88
C      13.98       9.70      34.04
C      14.32      10.78      34.89
C      14.14      12.12      34.49
C      13.57      12.38      33.22
C      13.20      11.33      32.36
C      13.43      10.00      32.76
C      14.22       8.34      34.45
C      13.95       7.92      35.78
C      14.26       6.61      36.20
C      14.82       5.70      35.29
C      15.03       6.06      33.95
C      14.76       7.39      33.55
C      13.83      24.88      14.32
C      13.37      24.26      15.51
C      13.37      22.85      15.65
C      13.82      22.06      14.58
C      14.30      22.65      13.39
C      14.29      24.05      13.27
C      13.82      26.31      14.18
C      14.20      27.16      15.26
C      14.21      28.56      15.13
C      13.84      29.14      13.90
C      13.44      28.33      12.81
C      13.44      26.93      12.96
C       1.61       0.10      36.30
C       2.04       0.79      37.44
C       1.25       0.83       0.81
C       0.00       0.16       0.81
C      30.53      30.42      37.46
C       0.37      30.38      36.29
C      30.88      29.78      35.13
C       1.65       1.50       1.95
C      25.23       4.32      17.71
C      24.71       3.83      18.92
C      25.55       3.62      20.03
C      26.93       3.90      19.90
C      27.45       4.40      18.69
C      26.60       4.62      17.58
C      27.10       5.07      16.38
C      25.08       3.09      21.22
C      10.22      13.42      29.30
C       9.95      13.98      28.04
C      10.88      13.88      26.97
C      12.08      13.16      27.21
C      12.35      12.60      28.48
C      11.43      12.73      29.55
C      11.74      12.37      30.85
C      10.69      14.53      25.75
C      16.91      19.65      10.88
C      17.25      19.07       9.64
C      16.31      19.04       8.58
C      15.03      19.59       8.80
C      14.70      20.18      10.03
C      15.64      20.23      11.08
C      15.32      20.80      12.30
C      16.62      18.48       7.36
C      12.66      20.47      21.06
C      13.01      21.48      20.14
C      12.40      21.54      18.87
C      11.41      20.58      18.55
C      11.05      19.59      19.47
C      11.67      19.51      20.74
C      11.30      18.56      21.68
C      12.79      22.51      17.96
C      27.31      14.96       8.18
C      27.70      14.34       9.38
C      26.83      14.29      10.49
C      25.55      14.87      10.37
C      25.15      15.49       9.17
C      26.02      15.54       8.06
C      25.67      16.18       6.89
C      27.24      13.75      11.70
C      14.66       4.94      28.55
C      14.35       5.18      29.90
C      15.02       4.47      30.93
C      15.98       3.50      30.57
C      16.29       3.26      29.22
C      15.64       3.98      28.19
C      15.92       3.75      26.85
C      14.65       4.71      32.24
C       1.77      15.18      17.14
C       2.22      15.85      18.30
C       1.37      16.02      19.41
C       0.05      15.53      19.34
C      30.56      14.86      18.19
C       0.46      14.66      17.08
C       0.02      14.03      15.94
C       1.80      16.66      20.56
C      25.53      20.10      36.25
C      25.14      19.20      37.27
C      26.04      18.84       0.50
C      27.35      19.37       0.47
C      27.74      20.26      37.26
C      26.83      20.65      36.24
C      27.18      21.58      35.28
C      25.64      18.06       1.56
C      10.69      30.12       9.62
C      10.43       0.01       8.54
C      11.42       0.28       7.55
C      12.69      30.63       7.71
C      12.96      29.78       8.80
C      11.96      29.51       9.76
C      12.20      28.66      10.82
C      11.15       1.07       6.44
C      11.95       3.23      36.83
C      12.10       3.62      35.48
C      11.37       4.72      34.98
C      10.50       5.42      35.84
C      10.34       5.01      37.17
C      11.06       3.90      37.69
C      10.88       3.46       1.19
C      11.51       5.09      33.74
C      26.86       0.43      27.75
C      27.30      30.63      28.85
C      26.46      30.43      29.97
C      25.17       0.05      29.96
C      24.72       0.80      28.86
C      25.57       1.00      27.74
C      25.16       1.74      26.65
C      26.91      29.76      31.10
C      16.17       0.99      17.84
C      16.41       1.54      19.11
C      15.62       1.16      20.23
C      14.58       0.23      20.03
C      14.34      30.64      18.76
C      15.14       0.04      17.65
C      14.92      30.48      16.38
C      15.87       1.67      21.50
C       2.20      20.94      28.73
C       2.58      20.00      27.76
C       1.64      19.47      26.85
C       0.29      19.90      26.95
C      30.87      20.84      27.92
C       0.86      21.36      28.82
C       0.48      22.25      29.81
C       1.99      18.57      25.85
C       0.23       3.49       8.71
C      30.68       4.02       9.91
C       0.57       4.26      11.01
C       1.95       3.96      10.89
C       2.46       3.45       9.68
C       1.61       3.22       8.58
C       2.09       2.70       7.39
C       0.08       4.79      12.19
C      16.27      15.94      36.19
C      16.64      16.71      37.30
C      15.86      16.69       0.68
C      14.68      15.92       0.71
C      14.32      15.13      37.40
C      15.12      15.12      36.24
C      14.81      14.31      35.16
C      16.28      17.34       1.83
N       9.72       3.47       1.74
N       9.94       1.32       6.08
N       2.90       1.58       2.27
N       3.12       3.21       6.81
N      17.07       1.93      21.87
N      17.11       3.45      26.47
N      23.97       3.49      21.74
N      23.96       1.66      26.20
N       3.17      18.56      25.35
N       2.96      16.41      21.04
N       9.58      15.12      25.48
N      10.07      18.18      21.76
N      24.46      16.19       6.47
N      24.50      18.28       2.12
N      17.79      18.64       6.83
N      17.47      17.13       2.25
N      30.23      12.99      15.99
N      28.02      12.74      11.76
N      27.94       6.05      16.35
N      30.29       5.83      12.17
N      28.34      21.56      34.73
N      30.49      21.94      30.60
N      30.13      28.73      35.16
N      27.75      28.80      31.02
N      15.59       5.14      33.03
N      14.04       6.27      37.39
N      12.73      11.60      31.15
N      14.47      13.08      35.35
N      13.09      28.95      11.69
N      14.51      29.27      16.22
N      14.71      21.93      12.35
N      12.96      22.20      16.73
