16

C       3.34       5.04      17.21
O       4.67       4.37      14.84
C       4.94       5.52      15.36
C       2.71       5.40      18.40
C       2.33       7.03      20.26
H       3.13       4.09      16.74
C       3.00       6.64      19.01
C       3.93       7.51      18.40
H       1.99       4.74      18.87
O       5.80       6.33      14.84
C       4.56       7.15      17.21
H       4.14       8.47      18.87
O       2.60       8.18      20.77
H       5.28       7.81      16.74
C       4.27       5.91      16.60
O       1.47       6.22      20.77
