16

C      -1.18      12.19       8.31
O      -1.10      10.70       5.94
C      -1.18      12.92       9.50
C       0.04      14.07      11.35
C       0.04      13.28      10.10
H      -2.12      11.90       7.84
C       1.25      12.91       9.49
H      -2.11      13.21       9.97
O       1.16      10.70       5.94
C       1.25      12.19       8.31
H       2.19      13.21       9.96
O       1.17      14.40      11.87
O      -1.09      14.41      11.87
H       2.19      11.89       7.84
C       0.03      11.04       6.45
C       0.03      11.82       7.70
