21

Mn      15.50       6.12      12.64
Mn      15.33       9.03       6.01
Mn      15.41       7.57       9.32
C      13.30       6.06      11.27
C      17.23       8.48      11.83
C      16.96       4.94      10.27
C      17.53       9.09       7.38
C      13.60       6.67       6.82
C      13.87      10.21       8.38
O      14.13       6.98      11.04
O      13.55       5.09      11.97
O      16.81       7.74      12.73
O      16.83       8.48      10.65
O      16.83       4.90      11.48
O      16.40       5.69       9.44
O      16.70       8.17       7.61
O      17.28      10.06       6.68
O      14.02       7.41       5.92
O      14.00       6.67       8.00
O      14.00      10.25       7.17
O      14.43       9.46       9.21
