12

H       7.07       2.67       0.41
H       7.07       2.39       1.94
H       9.09       1.41       0.41
H       9.09       1.69       1.94
O       7.20      -0.34       1.09
O       5.50       0.83       0.45
O       8.96       4.42       1.09
O      10.66       3.25       0.45
C       6.67       0.76       0.86
C       7.37       2.05       1.09
C       9.49       3.32       0.86
C       8.80       2.03       1.09
