18

H       0.04       2.53      10.32
H      -0.58       5.79      13.02
H       1.46       5.07      14.32
H       2.90       1.22      12.16
H       1.83       0.95      10.79
N       2.23       1.58      11.47
O       3.68       1.91      13.67
O       3.56       3.94      14.66
O      -2.09       3.72      10.02
O      -2.14       5.72      11.08
C       3.12       3.04      13.84
C       1.90       3.40      13.06
C       1.50       2.65      11.91
C       0.35       3.08      11.20
C      -0.38       4.19      11.60
C       0.01       4.93      12.73
C       1.14       4.52      13.44
C      -1.62       4.60      10.86
