32

H      -4.19       5.89      12.02
H      -6.99       3.83       9.64
H      -8.35       5.08      11.74
H      -7.22       6.04      14.10
H      -5.67       6.84      13.84
H      -5.54       8.92      12.44
H      -6.73      10.92      11.56
H     -10.51       9.03      12.39
H      -9.32       7.04      13.27
H      -8.79      11.93      10.73
H     -10.35      11.09      10.89
H     -11.92      12.04      12.67
H      -9.21      14.00      15.23
H      -7.77      12.81      13.14
C      -5.13       5.50      11.66
C      -6.62       4.44      10.46
C      -7.30       5.05      11.48
C      -6.63       6.60      13.37
C      -7.35       7.85      12.91
C      -6.63       8.94      12.42
C      -7.30      10.06      11.92
C      -8.70      10.10      11.89
C      -9.42       9.00      12.39
C      -8.75       7.89      12.89
C      -9.42      11.34      11.41
C     -10.99      12.41      13.08
C      -9.54      13.42      14.37
C      -8.83      12.84      13.36
N      -5.27       4.72      10.58
N      -6.34       5.71      12.24
N     -10.89      13.15      14.19
N      -9.76      12.20      12.55
