14

O       3.82      18.25      17.45
O       4.96      18.90      15.59
C       6.86      19.55      18.39
C       4.28      18.06      16.28
C       2.50      21.15      16.28
C       5.08      22.64      18.39
Cu       4.06      19.99      18.33
O       2.43      20.65      17.45
Cu       5.29      20.70      16.33
O       3.57      21.32      15.59
O       5.79      19.39      19.07
O       6.94      20.04      17.20
O       4.40      21.79      19.07
O       5.54      22.46      17.20
