14

O       3.81       7.29       1.94
O       4.96       9.26       1.95
C       6.86       6.85       0.40
O       2.43       8.09      -0.33
O       3.57      10.07      -0.33
C       5.08       7.87      -2.51
C       2.50       9.36      -0.40
O       5.79       6.15       0.33
O       6.93       8.12       0.33
Cu       4.06       7.04      -0.00
Cu       5.29       9.16       0.00
C       4.28       8.34       2.51
O       4.40       6.95      -1.94
O       5.54       8.93      -1.95
