14

C       5.92      41.60      24.58
Cu       7.15      44.12      24.98
Cu       4.70      44.12      24.98
O       7.06      46.06      25.30
O       4.78      46.06      25.31
O       7.06      44.46      23.04
O       4.78      44.45      23.03
C       5.92      43.66      27.49
O       7.06      43.78      26.92
O       4.78      43.78      26.93
C       5.92      44.58      22.47
C       5.92      46.63      25.38
O       7.06      42.18      24.65
O       4.78      42.17      24.65
