16

V       0.48      11.70      10.46
C      -1.07      12.57       8.00
O       1.27      11.21      12.24
O       1.25       9.99       9.72
O       0.09      13.56      11.15
C       2.47      11.12      12.79
O       2.43      12.62      10.03
O      -1.10      11.08      10.76
V       4.02      11.99      10.33
O       3.62      10.13       9.64
O       4.81      12.48       8.55
O      -2.28      13.70      11.07
C       2.46       9.51       9.48
C      -1.07      14.17      11.32
O       3.61      11.36      12.18
O       0.07      12.33       8.61
