136

V       1.21      11.46      11.30
V       2.40       3.82       0.15
V       4.83      11.46      11.00
V       6.02       3.82      22.15
H       0.13       8.26       1.09
H       3.49       7.02      12.24
H       3.75      14.66      21.22
H       7.11       0.62      10.07
H       0.93      10.98       4.99
H       2.69       4.30      16.14
H       4.55      11.94      17.31
H       6.31       3.34       6.16
H       5.89       7.16       9.99
H       4.96       8.12      21.14
H       2.28       0.48      12.31
H       1.34      14.80       1.16
H       6.14       5.58       6.06
H       4.72       9.70      17.21
H       2.52       2.06      16.25
H       1.10      13.21       5.10
H       5.47       5.36       8.39
H       5.39       9.92      19.54
H       1.85       2.28      13.91
H       1.77      13.00       2.76
H       0.78      10.62       7.37
H       2.84       4.66      18.52
H       4.40      12.30      14.94
H       6.46       2.98       3.78
H       7.10      11.38       3.08
H       3.75       3.89      14.23
H       3.48      11.53      19.23
H       0.13       3.74       8.08
H       1.01       4.40       3.83
H       2.60      10.88      14.98
H       4.63       3.24      18.47
H       6.22      12.04       7.32
C       3.24       9.59      12.80
C       0.38       5.69       1.65
C       6.86      13.33       9.51
C       4.00       1.95      20.66
C       3.24      13.33      12.80
C       0.38       1.94       1.64
C       6.86       9.58       9.51
C       4.00       5.70      20.66
C       0.31       9.19       3.02
C       3.31       6.09      14.17
C       3.93      13.73      19.28
C       6.93       1.55       8.13
C       0.33       6.79       2.63
C       3.29       8.49      13.78
C       3.95       0.85      19.67
C       6.91      14.43       8.52
C       6.26       7.26       8.97
C       4.60       8.01      20.13
C       2.64       0.38      13.33
C       0.98      14.90       2.18
C       6.02       6.23       8.07
C       4.84       9.04      19.22
C       2.40       1.40      14.23
C       1.22      13.87       3.08
C       6.43       6.35       6.75
C       4.42       8.93      17.90
C       2.82       1.29      15.56
C       0.80      13.99       4.40
C       7.12       7.49       6.30
C       3.73       7.79      17.45
C       3.51       0.15      16.00
C       0.11      15.13       4.85
C       0.06       8.58       7.21
C       3.56       6.70      18.36
C       3.68      14.34      15.10
C       7.18       0.94       3.95
C       0.24       7.65       4.92
C       3.37       7.63      16.08
C       3.86      15.27      17.38
C       6.99       0.01       6.23
C       0.39       8.96       4.42
C       3.23       6.32      15.57
C       4.01      13.95      17.88
C       6.85       1.32       6.73
C       0.64      10.00       5.33
C       2.98       5.27      16.48
C       4.26      12.91      16.97
C       6.60       2.37       5.82
C       0.55       9.79       6.71
C       3.07       5.48      17.86
C       4.17      13.12      15.60
C       6.69       2.15       4.45
C       0.44       6.55       4.02
C       3.18       8.72      15.18
C       4.06       1.08      18.28
C       6.80      14.19       7.13
C       0.22       8.09       2.15
C       3.39       7.18      13.31
C       3.84      14.82      20.15
C       7.01       0.46       9.00
C       6.88       8.45       8.56
C       3.98       6.83      19.71
C       3.26      14.47      13.74
C       0.36       0.81       2.59
C       0.19      10.56       2.45
C       3.43       4.72      13.61
C       3.81      12.36      19.85
C       7.05       2.92       8.70
C       0.99       5.25       4.49
C       2.63      10.03      15.64
C       4.61       2.39      17.81
C       6.25      12.89       6.66
O       4.41      12.91      12.33
O       6.45       2.37       1.17
O       0.79      10.01       9.98
O       2.83       5.27      21.13
O       2.02      10.02      12.48
O       1.60       5.26       1.33
O       5.64      12.90       9.82
O       5.22       2.38      20.98
O       2.02      12.90      12.48
O       1.60       2.38       1.33
O       5.64      10.02       9.82
O       5.22       5.26      20.98
O       0.79      12.91       9.98
O       2.83       2.37      21.13
O       4.41      10.01      12.33
O       6.45       5.27       1.17
O       3.20      11.46      10.33
O       0.41       3.82      21.48
O       6.82      11.46      11.97
O       4.03       3.82       0.82
O       0.42      10.77       1.27
O       3.20       4.51      12.43
O       4.04      12.15      21.03
O       6.82       3.13       9.88
O       1.52       5.14       5.59
O       2.10      10.14      16.74
O       5.14       2.50      16.72
O       5.72      12.78       5.56
