688

H       3.89       5.33       7.27
H       7.39       5.63       5.05
H       7.93       2.93       6.69
H       4.22       2.17       6.11
H       6.19       4.35      11.54
H       5.88       3.12       1.13
H      28.38       3.96      32.34
H      25.20       1.82      30.76
H      23.77       4.58      31.43
H      27.05       6.19      30.40
H      25.91       5.53      36.31
H      27.29       2.16      26.33
H       8.12      25.18      30.45
H       4.61      26.70      32.01
H       3.69      23.62      31.20
H       7.16      22.70      32.40
H       6.05      23.25      26.42
H       6.91      26.80      36.35
H      24.83      22.39       5.80
H      28.42      23.42       7.56
H      28.14      25.75       5.42
H      24.46      25.77       6.24
H      27.21      21.47       1.63
H      26.54      26.18      11.15
H      36.40      12.35      17.78
H      37.89      15.55      20.02
H      35.23      16.78      19.01
H      33.79      13.21      19.44
H      35.22      15.10      13.87
H      35.85      13.96      24.28
H      35.06      36.85      42.81
H      33.60      33.36      44.49
H      36.61      32.41      43.54
H      37.60      35.92      44.54
H      36.68      34.64      38.69
H      33.83      35.52      48.88
H      17.44      15.92      44.68
H      17.26      12.48      42.38
H      14.47      12.28      44.05
H      14.34      16.02      43.60
H      16.14      13.66      48.89
H      15.15      14.74      38.51
H      15.31      32.24      19.90
H      13.78      35.68      18.14
H      16.79      36.67      18.95
H      17.72      33.05      18.01
H      17.01      34.64      23.88
H      13.71      33.32      13.86
H      40.07      37.32      46.81
H       3.81      39.35       2.15
H       1.60       2.35       1.00
H      37.53      37.20      50.17
H       0.05       0.96      50.12
H      39.08      38.54       1.12
H       4.69       1.26       2.29
H      38.20      35.72      47.05
H      30.98      11.74      21.64
H      27.90       8.69      28.01
H      28.52       5.97      24.86
H      33.60      11.28      24.91
H      29.83       7.59      23.69
H      32.00       9.90      26.01
H      26.69       6.54      27.81
H      33.02      13.14      21.99
H      11.35      17.82      41.45
H       8.18      20.34      35.01
H       8.86      23.39      37.83
H      13.91      17.88      38.11
H      10.29      21.94      39.07
H      12.42      19.33      36.97
H       6.86      22.40      35.07
H      13.15      16.18      41.10
H      20.02      31.43      15.67
H      23.63      29.59       9.54
H      22.35      26.14      11.57
H      17.35      31.62      12.42
H      20.71      27.42      12.74
H      18.83      30.26      11.11
H      24.98      27.53       9.70
H      18.18      33.10      15.47
H      12.01      26.03      28.76
H      14.56      28.44      21.73
H      14.16      31.26      24.83
H       9.30      26.23      25.55
H      13.22      29.60      26.24
H      10.97      27.19      24.17
H      14.22      31.03      21.50
H       9.39      26.28      28.88
H      32.04      22.62       9.46
H      34.56      20.58      16.60
H      34.32      17.64      13.60
H      29.21      22.57      12.58
H      33.22      19.17      12.16
H      30.84      21.65      14.06
H      34.41      17.79      16.78
H      29.37      22.37       9.31
H      20.38       5.97      33.81
H      18.31       9.08      40.69
H      18.91      11.71      37.46
H      23.23       6.01      36.91
H      19.75       9.91      36.13
H      21.79       7.33      38.25
H      18.66      11.68      40.81
H      22.99       5.77      33.59
H       1.39      16.31      22.95
H       1.37      20.94      28.62
H       3.52      22.68      25.44
H      38.20      18.52      22.95
H       2.45      21.22      23.89
H      39.23      20.22      24.29
H       3.56      22.17      28.85
H      39.75      15.81      21.46
H      30.67      31.31      47.13
H      29.94      27.66       2.90
H      29.16      24.89      50.10
H      34.47      29.67      47.93
H      30.38      26.25      48.56
H      33.46      27.98      49.29
H      28.06      26.02       2.91
H      34.03      31.43      46.19
H      10.88      37.83      15.57
H      10.19       0.79       9.21
H       9.21       3.45      12.32
H      14.71      39.04      14.32
H      10.52       2.18      13.85
H      13.73       0.31      12.89
H       8.22       2.24       9.19
H      14.28      37.50      16.26
H      10.13       8.00       3.47
H      14.47       8.91      47.49
H      12.37      12.37      48.68
H       8.31       6.63      50.21
H      11.04      11.06      50.17
H      10.00       7.69      48.91
H      13.76      12.27      46.66
H       7.75       7.18       3.31
H      32.29       3.34      34.30
H      34.28       0.31      41.27
H      33.95      38.20      37.91
H      29.33       3.00      37.27
H      33.15      40.02      36.61
H      30.88       1.94      38.72
H      33.93      38.14      41.29
H      29.71       3.01      33.97
H      19.32      39.19      21.61
H      23.23      39.15      27.84
H      21.58       2.58      27.24
H      17.24      37.31      24.75
H      19.95       1.66      25.75
H      18.56      38.48      26.35
H      23.24       2.08      28.99
H      18.10      37.02      21.41
H      39.07      30.01      40.99
H       2.60      29.80      34.75
H       1.04      25.98      35.60
H      37.03      31.77      37.75
H      39.79      26.96      37.02
H      38.35      30.53      36.22
H       2.72      26.41      33.83
H      37.85      32.16      41.12
H       0.29       6.84       8.73
H      37.67       8.76      15.67
H      37.84      11.85      12.81
H       2.88       7.42      11.99
H      39.00      10.42      11.31
H       1.09       8.28      13.29
H      37.72      11.30      16.14
H       2.87       6.97       8.60
H      21.24      17.36      47.25
H      21.98      19.90       3.41
H      22.66      23.22       0.91
H      17.38      18.74      48.24
H      21.36      22.19      49.46
H      18.33      20.26      49.83
H      23.28      23.08       3.42
H      19.19      16.67      46.03
C       5.86       4.67       6.96
C       4.78       5.14       7.73
C       4.88       5.32       9.13
C       6.12       5.04       9.76
C       7.22       4.58       9.01
C       7.08       4.36       7.62
C       5.71       4.47       5.56
C       4.67       3.66       5.03
C       4.56       3.45       3.63
C       5.52       4.03       2.76
C       6.56       4.84       3.27
C       6.63       5.06       4.67
C       7.56       5.39       2.41
C       3.51       2.66       3.10
C       3.74       5.68       9.90
C       8.41       4.18       9.68
C      26.30       3.85      32.05
C      27.48       4.03      32.81
C      27.44       4.29      34.20
C      26.17       4.37      34.83
C      24.97       4.18      34.09
C      25.04       3.95      32.69
C      26.41       3.56      30.66
C      27.12       4.40      29.77
C      27.20       4.09      28.39
C      26.54       2.94      27.88
C      25.77       2.13      28.75
C      25.74       2.43      30.13
C      24.87       1.16      28.24
C      27.88       4.95      27.50
C      28.64       4.41      34.95
C      23.72       4.28      34.75
C       6.05      24.90      30.71
C       7.25      24.96      29.96
C       7.28      24.71      28.57
C       6.06      24.41      27.92
C       4.84      24.36      28.64
C       4.85      24.57      30.04
C       6.09      25.19      32.10
C       6.95      24.49      32.99
C       7.02      24.85      34.35
C       6.20      25.89      34.86
C       5.27      26.54      34.00
C       5.25      26.20      32.63
C       4.31      27.45      34.51
C       7.86      24.14      35.24
C       8.51      24.78      27.85
C       3.66      23.97      27.97
C      26.58      23.58       5.70
C      25.60      22.70       5.19
C      25.65      22.24       3.86
C      26.71      22.64       3.02
C      27.68      23.56       3.50
C      27.62      24.02       4.84
C      26.49      24.04       7.05
C      25.32      24.68       7.53
C      25.25      25.12       8.87
C      26.36      24.94       9.73
C      27.54      24.29       9.27
C      27.58      23.86       7.92
C      28.66      24.08      10.13
C      24.08      25.77       9.35
C      24.55      21.51       3.35
C      28.62      24.12       2.59
C      36.27      14.39      18.29
C      36.32      13.29      17.40
C      36.25      13.46      16.00
C      36.17      14.78      15.48
C      36.15      15.90      16.35
C      36.15      15.70      17.75
C      36.34      14.16      19.70
C      35.46      13.25      20.35
C      35.58      13.01      21.74
C      36.51      13.75      22.51
C      37.36      14.71      21.89
C      37.28      14.86      20.48
C      38.14      15.62      22.66
C      34.71      12.11      22.39
C      36.32      12.34      15.13
C      36.08      17.21      15.80
C      35.32      34.78      43.08
C      35.23      35.96      42.32
C      35.39      35.97      40.92
C      35.63      34.73      40.26
C      35.71      33.52      41.01
C      35.59      33.55      42.42
C      35.12      34.83      44.49
C      35.89      35.68      45.33
C      35.64      35.72      46.73
C      34.65      34.89      47.29
C      33.93      33.98      46.48
C      34.15      33.99      45.09
C      33.07      32.99      47.03
C      36.43      36.54      47.57
C      35.32      37.19      40.18
C      36.02      32.32      40.34
C      16.51      14.07      44.33
C      17.14      15.05      45.13
C      17.29      14.89      46.52
C      16.84      13.69      47.12
C      16.22      12.68      46.33
C      16.03      12.89      44.95
C      16.36      14.29      42.93
C      15.72      15.45      42.43
C      15.64      15.68      41.03
C      16.14      14.70      40.13
C      16.74      13.51      40.61
C      16.85      13.34      42.01
C      17.16      12.48      39.71
C      14.96      16.81      40.53
C      17.79      15.98      47.31
C      15.62      11.57      46.97
C      15.54      34.30      19.53
C      15.49      33.15      20.34
C      15.69      33.21      21.74
C      15.92      34.48      22.33
C      15.96      35.65      21.54
C      15.81      35.56      20.13
C      15.27      34.19      18.13
C      15.97      33.28      17.30
C      15.65      33.17      15.92
C      14.64      34.00      15.36
C      13.99      34.96      16.17
C      14.28      35.01      17.55
C      13.15      35.95      15.62
C      16.38      32.30      15.07
C      15.64      32.03      22.54
C      16.24      36.90      22.15
C      38.64      37.17      48.36
C      38.38      37.53      49.70
C      39.30      38.30       0.15
C       0.10      38.73      49.83
C       0.40      38.37      48.50
C      39.86      37.58      47.78
C       1.00      39.52       0.31
C       2.11      38.93       0.98
C       3.01      39.77       1.68
C       2.82       0.77       1.73
C       1.72       1.33       1.04
C       0.82       0.52       0.34
C      32.46      11.60      23.14
C      32.71      11.08      24.43
C      31.76      10.29      25.09
C      30.51      10.01      24.49
C      30.22      10.56      23.21
C      31.19      11.36      22.56
C      29.63       9.13      25.15
C      29.05       9.45      26.41
C      28.29       8.47      27.09
C      28.13       7.17      26.56
C      28.66       6.88      25.29
C      29.41       7.85      24.59
C      12.80      17.76      39.92
C      13.08      18.20      38.61
C      12.19      19.04      37.92
C      10.97      19.44      38.52
C      10.67      19.00      39.84
C      11.58      18.16      40.51
C      10.09      20.26      37.78
C       9.46      19.80      36.60
C       8.63      20.68      35.87
C       8.43      22.02      36.27
C       9.03      22.45      37.48
C       9.85      21.58      38.22
C      18.53      31.61      14.18
C      18.21      31.27      12.85
C      19.09      30.49      12.08
C      20.30      30.03      12.63
C      20.65      30.38      13.96
C      19.76      31.18      14.71
C      21.19      29.27      11.82
C      22.04      29.91      10.88
C      23.00      29.13      10.19
C      23.11      27.73      10.40
C      22.24      27.13      11.34
C      21.30      27.89      12.04
C      10.52      25.99      27.27
C      10.25      26.31      25.92
C      11.24      26.88      25.11
C      12.53      27.14      25.62
C      12.83      26.79      26.97
C      11.81      26.23      27.77
C      13.38      27.99      24.85
C      13.78      27.66      23.53
C      14.33      28.67      22.70
C      14.50      29.99      23.17
C      14.13      30.29      24.49
C      13.57      29.31      25.32
C      30.50      22.72      10.90
C      30.18      22.46      12.25
C      31.14      21.91      13.12
C      32.44      21.63      12.66
C      32.79      21.92      11.31
C      31.81      22.45      10.45
C      33.28      20.83      13.49
C      33.67      21.23      14.80
C      34.32      20.30      15.65
C      34.59      18.99      15.21
C      34.20      18.60      13.91
C      33.55      19.51      13.07
C      21.92       5.81      35.26
C      22.29       6.21      36.56
C      21.44       7.00      37.34
C      20.19       7.42      36.85
C      19.78       7.01      35.56
C      20.65       6.22      34.77
C      19.48       8.40      37.60
C      19.06       8.16      38.94
C      18.59       9.25      39.72
C      18.51      10.55      39.18
C      18.91      10.77      37.85
C      19.39       9.70      37.07
C      39.90      17.25      22.86
C      39.18      18.41      23.22
C      39.79      19.41      24.00
C       0.73      19.28      24.41
C       1.49      18.15      24.00
C       0.86      17.15      23.21
C       1.25      20.22      25.33
C       0.93      20.14      26.71
C       1.57      21.02      27.61
C       2.49      21.99      27.17
C       2.80      22.05      25.79
C       2.18      21.18      24.88
C      32.66      30.65      47.42
C      33.45      29.64      48.01
C      32.86      28.65      48.81
C      31.46      28.63      49.00
C      30.64      29.60      48.37
C      31.25      30.60      47.57
C      30.91      27.75      49.96
C      30.78      28.16       1.03
C      30.07      27.34       1.93
C      29.48      26.12       1.52
C      29.63      25.73       0.17
C      30.34      26.53      49.54
C      12.88      38.28      15.06
C      13.70      39.15      14.31
C      13.12      40.12      13.48
C      11.72      40.26      13.40
C      10.88      39.42      14.19
C      11.48      38.44      15.02
C      11.16       0.73      12.43
C      11.06       0.32      11.08
C      10.31       1.11      10.18
C       9.64       2.28      10.60
C       9.75       2.67      11.95
C      10.51       1.91      12.86
C       9.09       7.18       1.82
C       9.07       7.10       0.41
C      10.06       7.73      49.93
C      11.10       8.47       0.28
C      11.13       8.56       1.69
C      10.11       7.92       2.45
C      11.99       9.20      49.74
C      12.98       8.58      48.95
C      13.77       9.37      48.08
C      13.56      10.76      47.97
C      12.55      11.36      48.75
C      11.78      10.60      49.64
C      30.68       3.32      35.67
C      30.31       2.95      36.98
C      31.23       2.32      37.83
C      32.55       2.05      37.40
C      32.96       2.48      36.11
C      32.02       3.11      35.26
C      33.29       1.09      38.15
C      33.62       1.28      39.51
C      34.09       0.18      40.28
C      34.24      39.30      39.70
C      33.93      39.13      38.34
C      33.46      40.21      37.57
C      18.10      38.20      23.02
C      17.89      38.02      24.41
C      18.69      38.69      25.35
C      19.72      39.55      24.93
C      19.94      39.76      23.54
C      19.12      39.08      22.61
C      20.63      40.05      25.90
C      21.58      39.20      26.51
C      22.53      39.76      27.40
C      22.56       0.75      27.66
C      21.58       1.57      27.08
C      20.63       1.03      26.19
C      37.87      30.96      39.53
C      37.68      31.08      38.13
C      38.48      30.37      37.22
C      39.50      29.51      37.69
C      39.71      29.36      39.08
C      38.89      30.08      39.98
C       0.02      28.97      36.75
C       0.96      29.80      36.08
C       1.92      29.21      35.23
C       1.99      27.81      35.06
C       1.01      27.00      35.70
C       0.05      27.58      36.54
C       1.74       7.00      10.25
C       1.95       7.43      11.58
C       0.89       7.94      12.34
C      39.98       8.04      11.80
C      39.76       7.63      10.46
C       0.45       7.12       9.70
C      39.00       8.71      12.57
C      38.60       8.22      13.85
C      37.90       9.09      14.72
C      37.59      10.42      14.36
C      37.96      10.87      13.07
C      38.65      10.02      12.19
C      19.23      17.89      47.62
C      18.40      18.79      48.33
C      18.95      19.69      49.26
C      20.35      19.74      49.45
C      21.20      18.91      48.68
C      20.63      18.01      47.76
C      20.86      20.45       0.28
C      21.03      19.78       1.53
C      21.80      20.40       2.54
C      22.42      21.65       2.31
C      22.19      22.33       1.10
C      21.43      21.73       0.08
N       1.61      38.81      47.90
N       2.29      37.53       0.93
N       3.76       1.56       2.35
N      37.79      36.39      47.63
N      28.96      10.30      22.62
N      29.25      10.74      26.96
N      27.46       6.23      27.30
N      33.37      12.37      22.47
N       9.43      19.36      40.43
N       9.66      18.46      36.17
N       7.62      22.83      35.52
N      13.61      16.86      40.57
N      21.89      29.94      14.50
N      21.96      31.31      10.69
N      24.14      27.05       9.81
N      17.73      32.42      14.94
N      14.12      27.05      27.48
N      13.59      26.34      23.05
N      14.80      30.98      22.28
N       9.50      25.67      28.12
N      34.10      21.65      10.85
N      33.40      22.56      15.23
N      35.05      18.05      16.09
N      29.52      23.03      10.00
N      18.52       7.42      35.06
N      19.13       6.85      39.48
N      18.15      11.59      39.99
N      22.83       5.26      34.40
N       2.83      18.01      24.43
N       0.03      19.14      27.16
N       3.22      22.69      28.10
N      39.27      16.22      22.20
N      29.24      29.58      48.57
N      31.34      29.40       1.44
N      28.67      25.46       2.39
N      33.26      31.67      46.74
N       9.47      39.55      14.10
N      11.66      39.50      10.67
N       8.74       2.86       9.75
N      13.45      37.27      15.79
N      12.16       9.30       2.32
N      13.17       7.18      49.06
N      14.26      11.54      47.09
N       8.09       6.63       2.59
N      34.28       2.22      35.68
N      33.45       2.56      40.10
N      34.50      38.22      40.50
N      29.73       3.62      34.73
N      21.01       0.20      23.12
N      21.60      37.82      26.20
N      23.53       1.32      28.45
N      17.51      37.38      22.09
N       0.37      28.54      39.55
N       0.95      31.20      36.30
N       2.98      27.21      34.32
N      37.27      31.80      40.42
N      38.46       7.75       9.90
N      38.94       6.91      14.23
N      37.19      11.30      15.33
N       2.78       6.56       9.48
N      22.60      18.96      48.89
N      20.48      18.49       1.71
N      23.35      22.13       3.19
N      18.71      16.89      46.85
O       6.26       5.24      11.11
O       5.36       3.91       1.41
O       8.15       3.86       6.92
O       3.80       3.03       5.87
O       8.11       4.54       1.51
O       2.24       2.98       3.48
O       9.06       5.12      10.40
O       3.54       5.01      11.06
O      26.10       4.57      36.18
O      26.51       2.72      26.54
O      23.88       3.78      31.99
O      27.75       5.52      30.23
O      25.32       0.33      27.27
O      29.01       4.47      26.94
O      23.53       3.56      35.88
O      28.68       5.28      35.98
O       6.04      24.22      26.56
O       6.19      26.15      36.20
O       3.67      24.48      30.73
O       7.75      23.48      32.52
O       4.73      28.36      35.42
O       8.97      24.78      35.67
O       3.23      24.76      26.96
O       8.70      23.90      26.83
O      26.69      22.29       1.70
O      26.23      25.25      11.05
O      28.58      24.88       5.29
O      24.27      24.92       6.68
O      28.92      25.00      11.09
O      22.90      25.12       9.21
O      29.43      23.27       1.91
O      24.83      20.33       2.74
O      36.16      14.97      14.13
O      36.62      13.52      23.85
O      36.11      16.79      18.58
O      34.52      12.57      19.64
O      37.62      16.02      23.85
O      35.27      11.02      22.95
O      36.93      17.52      14.79
O      35.52      12.33      14.03
O      35.72      34.69      38.90
O      34.50      34.84      48.65
O      35.72      32.39      43.12
O      36.84      36.49      44.79
O      32.22      33.37      48.01
O      35.79      37.52      48.25
O      35.12      31.87      39.42
O      36.18      37.34      39.14
O      17.01      13.48      48.46
O      16.07      14.94      38.78
O      15.38      11.93      44.22
O      15.19      16.38      43.28
O      16.40      12.27      38.61
O      15.71      17.73      39.88
O      16.40      10.80      47.77
O      17.30      16.12      48.56
O      16.05      34.59      23.69
O      14.42      33.99      14.02
O      15.91      36.69      19.38
O      16.95      32.47      17.82
O      12.22      35.56      14.71
O      15.69      31.33      14.44
O      15.34      37.34      23.06
O      16.48      31.93      23.59
O       2.25      37.02       2.08
O       1.39      39.53      46.90
O       2.32      37.83      47.55
O       3.38      37.22       0.40
O      29.84      10.68      28.07
O      29.08       9.71      21.52
O      28.32      11.37      22.43
O      28.16      11.34      27.12
O      10.18      18.41      35.03
O       9.61      20.00      41.49
O       8.72      18.36      40.67
O       8.57      17.82      36.15
O      21.68      31.59       9.50
O      21.72      29.23      15.51
O      22.62      30.92      14.80
O      23.03      31.88      11.01
O      12.83      26.31      22.05
O      14.08      27.84      28.46
O      14.68      25.99      27.85
O      14.68      25.81      22.74
O      32.66      22.57      16.24
O      34.11      20.83       9.91
O      34.67      22.71      10.47
O      34.46      23.17      15.50
O      19.88       6.80      40.48
O      18.63       8.11      34.02
O      17.78       6.43      34.81
O      17.99       6.44      39.81
O      39.44      19.65      27.74
O       3.62      17.96      23.46
O       2.98      16.99      25.14
O       0.59      18.34      27.96
O      32.19      29.24       2.36
O      28.62      29.43      47.49
O      28.84      30.63      49.13
O      30.45      30.19       1.85
O      12.50      39.69       9.75
O       8.97      39.84      15.21
O       8.94      38.49      13.68
O      10.80      38.68      10.27
O      12.97       6.61      47.96
O      11.70      10.25       3.00
O      12.85       8.56       3.07
O      14.34       6.90      49.45
O      32.63       2.53      41.05
O      34.30       1.49      34.65
O      34.89       3.28      35.42
O      34.54       3.02      40.52
O      21.42      37.11      27.23
O      20.59       1.16      22.42
O      21.85      39.95      22.45
O      22.69      37.48      25.67
O       0.75      31.84      35.24
O      40.34      27.61      40.28
O       1.22      29.21      40.19
O       2.02      31.59      36.82
O      39.67       6.89      15.25
O      38.45       8.51       8.90
O      38.01       6.62       9.56
O      37.91       6.22      14.46
O      19.67      18.47       2.67
O      23.21      19.28      47.84
O      23.05      17.85      49.30
O      21.37      17.63       1.92
