888

H      32.52      32.75      56.25
H      32.49      32.84      58.63
H       1.21       1.28      56.17
H       1.21       1.35      58.56
H      34.27       2.06      60.51
H      34.26       2.11      62.90
H      33.77      32.23      60.61
H      33.73      32.30      62.99
H      31.30      34.41      63.64
H      29.50      34.40      65.41
H      33.12       0.09      67.29
H       0.46      34.33       0.24
H       2.32      34.37      63.64
H       4.11      34.37      65.45
H       4.80       2.13      68.15
H       7.18       2.10      68.12
H       4.73      32.28      68.15
H       7.11      32.24      68.16
H       4.09       0.04       2.11
H       2.29       0.05       3.89
H      29.48       0.02       2.08
H      31.26       0.01       3.89
H      34.28      32.29       4.59
H      34.27      32.29       6.97
H      33.65       2.09       4.59
H      33.67       2.10       6.97
H      32.38       1.38       8.95
H      32.43       1.39      11.34
H       1.26      33.02      11.29
H       1.24      33.02       8.91
H      28.77       2.15      67.71
H      26.38       2.16      67.67
H      24.43      33.10       0.94
H      22.05      33.12       0.90
H      22.06       1.43      66.32
H      24.45       1.39      66.34
H      26.35      32.37      68.42
H      28.74      32.37      68.47
H       9.08      32.67      66.80
H      11.46      32.61      66.81
H       9.22       1.52       0.73
H      11.60       1.48       0.71
H      32.88       1.28      21.81
H      32.86       1.32      24.20
H       1.47      32.65      21.87
H       1.44      32.66      24.25
H       2.06      33.99      26.20
H       2.05      33.98      28.59
H      32.22      34.39      26.18
H      32.22       0.05      28.57
H      34.30       2.52      29.28
H      34.29       4.32      31.05
H      -0.03       0.69      32.93
H      34.29      33.40      34.59
H      34.28      31.49      29.27
H      34.28      29.71      31.07
H       2.03      29.01      33.80
H       2.00      26.63      33.76
H      32.18      29.08      33.76
H      32.14      26.69      33.77
H      -0.01      29.78      36.46
H       0.01      31.58      38.24
H      -0.01       4.39      36.45
H      -0.02       2.60      38.25
H      32.26      33.95      38.95
H      32.27      33.98      41.34
H       2.07       0.23      38.93
H       2.08       0.23      41.32
H       1.35       1.56      43.28
H       1.36       1.56      45.67
H      33.01      32.70      45.67
H      33.02      32.68      43.30
H       2.05       5.04      33.35
H       2.06       7.43      33.32
H      33.06       9.44      35.31
H      33.07      11.82      35.26
H       1.33      11.75      31.96
H       1.29       9.36      31.98
H      32.27       7.46      34.05
H      32.26       5.07      34.11
H      32.58      24.73      32.41
H      32.52      22.34      32.43
H       1.48      24.65      35.09
H       1.43      22.27      35.06
H      33.09       1.69      17.34
H       0.24      31.80      19.19
H       1.63      31.70      18.10
H       0.10      30.92      17.68
H       0.67      32.90      13.55
H      32.75       0.43      19.54
H       1.58       1.13      51.69
H      31.77      33.75      53.54
H      31.82      32.30      52.52
H      30.91      33.73      52.01
H      32.95      33.25      47.93
H       0.34       1.40      53.89
H      17.50      32.36      68.51
H      19.40       2.48      68.40
H      18.00       3.20       0.27
H      18.22       3.10      67.25
H      13.70       1.67      68.16
H      19.74      33.44       0.63
H      32.26      16.31      34.14
H       2.38      14.41      34.04
H       3.16      15.87      34.62
H       3.00      15.58      32.88
H       1.57      20.10      33.79
H      33.39      14.13      34.98
H      24.53      24.75      54.25
H      24.49      24.84      56.63
H      27.58      27.65      54.17
H      27.58      27.72      56.56
H      26.27      28.43      58.51
H      26.26      28.48      60.90
H      25.77      24.23      58.61
H      25.73      24.30      60.99
H      23.30      26.40      61.64
H      21.50      26.40      63.41
H      25.12      26.45      65.29
H      26.77      26.39      66.96
H      28.69      26.37      61.64
H      30.47      26.37      63.45
H      31.16      28.49      66.15
H      33.55      28.46      66.12
H      31.10      24.28      66.15
H      33.48      24.24      66.16
H      30.46      26.40       0.11
H      28.65      26.42       1.89
H      21.48      26.39       0.08
H      23.26      26.37       1.89
H      26.28      24.29       2.59
H      26.27      24.28       4.97
H      25.65      28.46       2.59
H      25.67      28.46       4.97
H      24.38      27.74       6.95
H      24.43      27.75       9.34
H      27.63      25.01       9.29
H      27.61      25.02       6.91
H      20.77      28.51      65.71
H      18.38      28.53      65.67
H      16.37      25.16      67.67
H      13.99      25.18      67.62
H      14.06      27.79      64.32
H      16.45      27.76      64.34
H      18.35      24.37      66.42
H      20.74      24.37      66.47
H       1.08      24.67      64.80
H       3.47      24.61      64.81
H       1.16      27.94      67.46
H       3.54      27.90      67.43
H      24.88      27.65      19.81
H      24.87      27.68      22.20
H      27.84      24.65      19.87
H      27.81      24.65      22.25
H      28.43      25.99      24.20
H      28.41      25.98      26.59
H      24.22      26.38      24.18
H      24.22      26.41      26.57
H      26.30      28.88      27.28
H      26.30      30.68      29.05
H      26.34      27.05      30.93
H      26.29      25.40      32.59
H      26.28      23.49      27.27
H      26.28      21.70      29.07
H      28.39      21.01      31.80
H      28.36      18.63      31.76
H      24.18      21.08      31.76
H      24.14      18.69      31.77
H      26.36      21.77      34.46
H      26.38      23.58      36.24
H      26.35      30.75      34.45
H      26.34      28.97      36.25
H      24.27      25.95      36.95
H      24.27      25.98      39.34
H      28.43      26.59      36.93
H      28.45      26.60      39.32
H      27.72      27.92      41.28
H      27.73      27.92      43.67
H      25.01      24.70      43.67
H      25.02      24.68      41.30
H      28.41      31.40      31.35
H      28.43      33.79      31.32
H      25.06       1.44      33.31
H      25.08       3.82      33.26
H      27.70       3.74      29.96
H      27.66       1.36      29.98
H      24.27      33.82      32.05
H      24.27      31.43      32.11
H      24.58      16.73      30.41
H      24.52      14.34      30.43
H      27.84      16.65      33.09
H      27.80      14.26      33.06
H      25.09      28.05      15.34
H      26.61      23.80      17.19
H      28.00      23.69      16.10
H      26.46      22.91      15.68
H      27.04      24.90      11.55
H      24.75      26.79      17.54
H      27.94      27.49      49.69
H      23.77      25.75      51.54
H      23.82      24.30      50.52
H      22.91      25.73      50.01
H      24.95      25.25      45.93
H      26.70      27.76      51.89
H       9.50      24.36      66.51
H      11.40      28.84      66.40
H       9.94      29.62      66.99
H      10.22      29.46      65.25
H       5.70      28.03      66.16
H      11.68      25.50      67.35
H      24.26       8.31      32.14
H      28.74       6.40      32.04
H      29.53       7.87      32.62
H      29.36       7.58      30.88
H      27.94      12.10      31.79
H      25.39       6.13      32.98
H      16.53      16.74      52.25
H      16.49      16.84      54.63
H      19.58      19.65      52.17
H      19.58      19.71      54.56
H      18.27      20.42      56.51
H      18.26      20.47      58.90
H      17.78      16.23      56.61
H      17.73      16.29      58.99
H      15.30      18.40      59.64
H      13.50      18.40      61.41
H      17.12      18.45      63.29
H      18.77      18.38      64.96
H      20.69      18.37      59.64
H      22.48      18.37      61.45
H      23.17      20.49      64.15
H      25.55      20.46      64.12
H      23.10      16.28      64.15
H      25.48      16.23      64.16
H      22.40      18.46      66.83
H      20.59      18.47      68.61
H      13.42      18.44      66.81
H      15.20      18.43      68.62
H      18.28      16.29       0.59
H      18.27      16.28       2.97
H      17.65      20.45       0.59
H      17.67      20.46       2.97
H      16.39      19.74       4.95
H      16.43      19.75       7.34
H      19.63      17.01       7.29
H      19.61      17.02       4.91
H      12.77      20.51      63.71
H      10.38      20.53      63.67
H       8.37      17.16      65.67
H       5.99      17.18      65.62
H       6.06      19.79      62.32
H       8.45      19.75      62.34
H      10.36      16.37      64.42
H      12.74      16.37      64.47
H      27.45      16.67      62.80
H      29.83      16.60      62.81
H      27.53      19.94      65.46
H      29.91      19.90      65.43
H      16.88      19.64      17.81
H      16.87      19.68      20.20
H      19.84      16.65      17.87
H      19.81      16.65      20.25
H      20.43      17.99      22.20
H      20.41      17.98      24.59
H      16.22      18.38      22.18
H      16.22      18.41      24.57
H      18.30      20.88      25.28
H      18.30      22.68      27.05
H      18.34      19.05      28.93
H      18.30      17.40      30.59
H      18.29      15.49      25.27
H      18.29      13.70      27.07
H      20.40      13.01      29.80
H      20.36      10.62      29.76
H      16.18      13.07      29.76
H      16.14      10.69      29.77
H      18.36      13.77      32.46
H      18.38      15.57      34.24
H      18.35      22.75      32.45
H      18.34      20.96      34.25
H      16.27      17.94      34.95
H      16.27      17.98      37.34
H      20.43      18.59      34.93
H      20.45      18.60      37.32
H      19.72      19.92      39.28
H      19.73      19.92      41.67
H      17.01      16.70      41.67
H      17.02      16.67      39.30
H      20.41      23.40      29.35
H      20.43      25.79      29.32
H      17.06      27.80      31.31
H      17.08      30.18      31.26
H      19.70      30.11      27.96
H      19.66      27.72      27.98
H      16.27      25.82      30.05
H      16.27      23.43      30.11
H      16.58       8.73      28.41
H      16.52       6.34      28.43
H      19.85       8.64      31.09
H      19.80       6.26      31.06
H      17.09      20.05      13.34
H      18.61      15.79      15.19
H      20.00      15.69      14.10
H      18.47      14.91      13.68
H      19.04      16.90       9.55
H      16.75      18.79      15.54
H      19.94      19.49      47.69
H      15.77      17.75      49.54
H      15.82      16.30      48.52
H      14.91      17.73      48.01
H      16.95      17.25      43.93
H      18.71      19.76      49.89
H       1.50      16.36      64.51
H       3.40      20.84      64.40
H       1.94      21.62      64.99
H       2.22      21.46      63.25
H      32.07      20.03      64.16
H       3.68      17.49      65.35
H      16.26       0.31      30.14
H      20.75      32.77      30.04
H      21.53      34.23      30.62
H      21.37      33.94      28.88
H      19.94       4.10      29.79
H      17.39      32.49      30.98
C      31.48      34.42      64.64
C      30.50      34.42      65.61
C      31.11       0.07      66.87
C      32.73       0.06      65.28
C      33.99       0.06      64.61
C       0.88      34.42      65.27
C       2.46      34.41      66.87
C       3.10      34.39      65.63
C       2.13      34.39      64.64
C       3.10      34.41      68.14
C       2.47      34.37       0.66
C       0.86       0.01       2.25
C       2.10       0.03       2.88
C       3.09       0.02       1.91
C      33.96       0.01       2.92
C      32.70       0.01       2.26
C      31.12       0.01       0.66
C      30.48       0.02       1.90
C      31.45       0.01       2.89
C      30.42       0.07      68.12
C      28.99       0.08      68.09
C      28.25      33.25      68.30
C      26.84      33.26      68.28
C      26.11       0.09      68.04
C      26.86       1.27      67.83
C      28.27       1.27      67.86
C      24.67       0.09      68.01
C      23.95       0.85      67.05
C      22.54       0.86      67.03
C      21.78       0.12      67.96
C      22.55      33.66       0.19
C      23.96      33.65       0.21
C      33.96       0.01       4.36
C      34.15      33.18       5.08
C      34.16      33.18       6.49
C      33.97       0.01       7.23
C      33.78       1.21       6.49
C      33.78       1.21       5.08
C      33.99       0.01       8.67
C       0.55      33.59       9.40
C       0.56      33.59      10.82
C      34.02       0.01      11.56
C      33.10       0.81      10.84
C      33.09       0.81       9.43
C       4.53      34.39      68.16
C       5.28       1.23      68.16
C       6.69       1.20      68.15
C       7.41      34.34      68.14
C       6.65      33.15      68.14
C       5.24      33.17      68.15
C       8.86      34.32      68.12
C       9.58      33.36      67.37
C      10.99      33.32      67.36
C      11.74      34.27      68.09
C      11.09       0.80       0.13
C       9.68       0.83       0.14
C      33.99      34.39      63.17
C      34.15       1.21      62.42
C      33.84      33.17      62.48
C      33.86      33.14      61.07
C      34.02      34.33      60.30
C      34.17       1.18      61.01
C      34.03      34.29      58.85
C       0.54       0.74      58.09
C       0.55       0.69      56.68
C      34.04      34.20      55.97
C      33.17      33.38      56.72
C      33.16      33.43      58.13
C      34.31       2.33      30.28
C      34.31       3.32      31.25
C      34.32       2.70      32.50
C      34.31       1.09      30.91
C      34.31      34.19      30.24
C      34.31      32.93      30.90
C      34.31      31.35      32.49
C      34.29      30.71      31.25
C      34.30      31.68      30.27
C      34.31      30.71      33.76
C      34.32      31.40      35.01
C      34.33      33.01      36.61
C      -0.01      31.76      37.24
C      -0.02      30.78      36.27
C      -0.03      34.27      37.28
C      -0.03       1.16      36.62
C      34.33       2.75      35.02
C      -0.02       3.38      36.27
C      -0.03       2.41      37.25
C      34.33       3.39      33.75
C      -0.03       4.82      33.73
C      33.15       5.56      33.94
C      33.16       6.97      33.92
C      -0.02       7.70      33.68
C       1.17       6.95      33.47
C       1.17       5.54      33.50
C      -0.01       9.14      33.65
C       0.75       9.86      32.69
C       0.76      11.27      32.66
C       0.02      12.03      33.60
C      33.62      11.32      34.55
C      33.60       9.91      34.58
C      -0.02      34.26      38.71
C      33.15      34.08      39.44
C      33.16      34.09      40.85
C      -0.01      34.29      41.59
C       1.19       0.11      40.84
C       1.18       0.10      39.43
C      -0.00      34.30      43.03
C      33.58      33.38      43.78
C      33.58      33.39      45.19
C      -0.01      34.32      45.92
C       0.78       0.87      45.18
C       0.78       0.86      43.77
C      34.29      29.28      33.78
C       1.13      28.53      33.79
C       1.10      27.12      33.78
C      34.24      26.40      33.76
C      33.05      27.16      33.75
C      33.07      28.57      33.76
C      34.22      24.95      33.75
C      33.26      24.23      32.99
C      33.23      22.82      32.98
C      34.17      22.07      33.72
C       0.76      22.77      34.48
C       0.79      24.19      34.50
C      34.31      34.20      28.81
C       1.16      34.07      28.09
C      33.11      34.32      28.08
C      33.12      34.32      26.67
C      34.32      34.19      25.93
C       1.16      34.06      26.68
C      34.33      34.17      24.49
C       0.83      33.31      23.76
C       0.84      33.30      22.35
C      -0.01      34.14      21.60
C      33.49       0.64      22.32
C      33.48       0.66      23.73
C       0.14      33.01      17.41
C      33.91      34.19      17.96
C      33.53       0.82      17.03
C      34.30      33.90      15.18
C       0.55      31.80      18.15
C       0.13      33.69      13.82
C      33.62       0.02      19.31
C      33.01      33.87      51.77
C      34.14       0.19      52.32
C       0.74       0.62      51.38
C      33.89      34.09      49.54
C      31.82      33.39      52.51
C      33.70      33.85      48.19
C      34.31       0.51      53.67
C      17.58       1.33      68.20
C      18.13      34.39      68.35
C      17.19      33.33      68.38
C      15.35       0.44      68.15
C      18.34       2.61      68.21
C      13.98       0.72      68.13
C      19.47      34.10      68.59
C       1.23      16.22      33.84
C      34.29      15.68      33.98
C      33.22      16.62      34.01
C       0.34      18.46      33.77
C       2.50      15.47      33.85
C       0.62      19.82      33.76
C      34.00      14.33      34.23
C      23.48      26.42      62.64
C      22.50      26.42      63.61
C      23.11      26.44      64.87
C      24.73      26.42      63.28
C      25.99      26.42      62.61
C      27.25      26.42      63.27
C      28.83      26.41      64.87
C      29.47      26.39      63.63
C      28.50      26.39      62.64
C      29.47      26.41      66.14
C      28.78      26.42      67.38
C      27.22      26.37       0.25
C      28.47      26.39       0.88
C      29.39      26.45      68.64
C      25.97      26.37       0.92
C      24.70      26.37       0.26
C      23.06      26.43      67.39
C      22.42      26.44      68.63
C      23.45      26.37       0.89
C      22.42      26.44      66.12
C      20.99      26.44      66.09
C      20.25      25.25      66.30
C      18.84      25.26      66.28
C      18.11      26.45      66.04
C      18.86      27.64      65.83
C      20.27      27.63      65.86
C      16.67      26.45      66.01
C      15.95      27.21      65.05
C      14.54      27.23      65.03
C      13.78      26.48      65.96
C      14.49      25.72      66.92
C      15.90      25.70      66.94
C      25.97      26.37       2.36
C      26.15      25.17       3.08
C      26.16      25.18       4.49
C      25.97      26.37       5.23
C      25.78      27.57       4.49
C      25.78      27.57       3.08
C      25.99      26.38       6.67
C      26.91      25.59       7.40
C      26.93      25.59       8.82
C      26.02      26.37       9.56
C      25.10      27.17       8.84
C      25.09      27.17       7.43
C      30.90      26.39      66.16
C      31.65      27.59      66.16
C      33.06      27.56      66.15
C      33.78      26.34      66.14
C      33.02      25.15      66.14
C      31.61      25.17      66.15
C       0.86      26.32      66.12
C       1.58      25.35      65.37
C       2.99      25.32      65.36
C       3.74      26.27      66.09
C       3.04      27.23      66.86
C       1.62      27.25      66.87
C      25.99      26.39      61.17
C      26.15      27.58      60.42
C      25.84      25.17      60.48
C      25.86      25.14      59.07
C      26.02      26.32      58.30
C      26.17      27.54      59.01
C      26.03      26.29      56.85
C      26.91      27.10      56.09
C      26.92      27.06      54.68
C      26.05      26.19      53.97
C      25.18      25.38      54.72
C      25.16      25.43      56.13
C      26.31      28.70      28.28
C      26.31      29.68      29.25
C      26.33      29.06      30.50
C      26.32      27.45      28.91
C      26.31      26.19      28.24
C      26.31      24.93      28.90
C      26.31      23.35      30.49
C      26.29      22.71      29.25
C      26.30      23.68      28.27
C      26.31      22.71      31.76
C      26.32      23.40      33.01
C      26.33      25.01      34.61
C      26.35      23.76      35.24
C      26.34      22.78      34.27
C      26.34      26.26      35.28
C      26.34      27.53      34.62
C      26.33      29.11      33.02
C      26.34      29.75      34.27
C      26.34      28.78      35.25
C      26.33      29.75      31.75
C      26.34      31.19      31.73
C      25.15      31.92      31.94
C      25.16      33.33      31.92
C      26.35      34.06      31.68
C      27.54      33.31      31.47
C      27.53      31.90      31.50
C      26.35       1.14      31.65
C      27.11       1.86      30.69
C      27.13       3.27      30.66
C      26.38       4.03      31.60
C      25.62       3.32      32.55
C      25.60       1.91      32.58
C      26.35      26.26      36.71
C      25.15      26.08      37.44
C      25.16      26.09      38.85
C      26.36      26.29      39.59
C      27.55      26.47      38.84
C      27.55      26.46      37.43
C      26.36      26.30      41.03
C      25.58      25.38      41.78
C      25.58      25.39      43.19
C      26.36      26.32      43.92
C      27.15      27.23      43.18
C      27.15      27.22      41.77
C      26.29      21.27      31.78
C      27.49      20.53      31.79
C      27.47      19.12      31.78
C      26.25      18.39      31.76
C      25.05      19.16      31.75
C      25.07      20.57      31.76
C      26.22      16.95      31.75
C      25.26      16.23      30.99
C      25.23      14.82      30.98
C      26.17      14.07      31.72
C      27.13      14.77      32.48
C      27.15      16.18      32.50
C      26.31      26.19      26.81
C      27.52      26.07      26.09
C      25.11      26.32      26.08
C      25.12      26.32      24.67
C      26.33      26.18      23.93
C      27.53      26.06      24.68
C      26.33      26.17      22.49
C      27.19      25.31      21.76
C      27.21      25.30      20.35
C      26.36      26.14      19.60
C      25.50      27.00      20.32
C      25.49      27.02      21.73
C      26.50      25.01      15.41
C      25.92      26.18      15.96
C      25.53      27.18      15.03
C      26.30      25.90      13.18
C      26.91      23.79      16.15
C      26.50      25.69      11.82
C      25.62      26.38      17.31
C      25.01      25.87      49.77
C      26.14      26.55      50.32
C      27.11      26.98      49.38
C      25.90      26.09      47.54
C      23.82      25.39      50.51
C      25.70      25.85      46.19
C      26.31      26.88      51.67
C       9.58      27.70      66.20
C      10.13      26.39      66.35
C       9.19      25.32      66.38
C       7.35      26.81      66.15
C      10.34      28.97      66.21
C       5.99      27.08      66.13
C      11.48      26.10      66.59
C      27.60       8.22      31.84
C      26.29       7.68      31.98
C      25.23       8.62      32.01
C      26.71      10.46      31.78
C      28.87       7.47      31.85
C      26.98      11.82      31.76
C      26.00       6.33      32.23
C      15.49      18.42      60.64
C      14.50      18.42      61.61
C      15.12      18.43      62.87
C      16.73      18.42      61.28
C      17.99      18.42      60.61
C      19.25      18.42      61.27
C      20.83      18.41      62.87
C      21.47      18.39      61.63
C      20.50      18.39      60.64
C      21.47      18.41      64.14
C      20.78      18.42      65.38
C      19.17      18.43      66.97
C      20.41      18.45      67.61
C      21.40      18.44      66.64
C      17.91      18.43      67.65
C      16.65      18.43      66.99
C      15.07      18.43      65.39
C      14.43      18.44      66.63
C      15.40      18.43      67.61
C      14.42      18.43      64.12
C      12.99      18.44      64.09
C      12.25      17.25      64.30
C      10.84      17.26      64.28
C      10.11      18.45      64.04
C      10.86      19.63      63.83
C      12.27      19.63      63.86
C       8.67      18.45      64.01
C       7.95      19.21      63.05
C       6.54      19.22      63.03
C       5.78      18.48      63.96
C       6.49      17.72      64.92
C       7.91      17.70      64.94
C      17.97      18.37       0.36
C      18.15      17.17       1.08
C      18.16      17.18       2.49
C      17.98      18.37       3.23
C      17.79      19.57       2.49
C      17.78      19.57       1.08
C      17.99      18.38       4.67
C      18.91      17.59       5.40
C      18.93      17.59       6.82
C      18.02      18.37       7.56
C      17.11      19.17       6.84
C      17.09      19.17       5.43
C      22.90      18.39      64.16
C      23.65      19.59      64.16
C      25.06      19.56      64.15
C      25.78      18.34      64.14
C      25.02      17.14      64.14
C      23.61      17.16      64.15
C      27.22      18.32      64.12
C      27.94      17.35      63.37
C      29.35      17.32      63.36
C      30.11      18.26      64.09
C      29.40      19.22      64.86
C      27.99      19.25      64.87
C      17.99      18.39      59.17
C      18.16      19.57      58.42
C      17.84      17.17      58.48
C      17.86      17.14      57.07
C      18.02      18.32      56.30
C      18.17      19.54      57.01
C      18.03      18.28      54.85
C      18.91      19.10      54.09
C      18.92      19.05      52.68
C      18.05      18.19      51.97
C      17.18      17.38      52.72
C      17.16      17.43      54.13
C      18.31      20.69      26.28
C      18.31      21.68      27.25
C      18.33      21.06      28.50
C      18.32      19.45      26.91
C      18.31      18.19      26.24
C      18.31      16.93      26.90
C      18.31      15.35      28.49
C      18.30      14.71      27.25
C      18.30      15.68      26.27
C      18.31      14.70      29.76
C      18.32      15.39      31.01
C      18.33      17.00      32.61
C      18.36      15.76      33.24
C      18.34      14.77      32.27
C      18.34      18.26      33.28
C      18.34      19.52      32.62
C      18.34      21.11      31.02
C      18.35      21.75      32.27
C      18.34      20.77      33.25
C      18.33      21.75      29.75
C      18.34      23.18      29.73
C      17.15      23.92      29.94
C      17.16      25.33      29.92
C      18.35      26.06      29.68
C      19.54      25.31      29.47
C      19.53      23.90      29.50
C      18.36      27.50      29.65
C      19.12      28.22      28.69
C      19.13      29.63      28.66
C      18.38      30.39      29.60
C      17.62      29.68      30.55
C      17.61      28.27      30.58
C      18.35      18.26      34.71
C      17.16      18.08      35.44
C      17.16      18.09      36.85
C      18.36      18.29      37.59
C      19.55      18.47      36.84
C      19.55      18.46      35.43
C      18.37      18.30      39.03
C      17.58      17.38      39.78
C      17.58      17.39      41.19
C      18.36      18.32      41.92
C      19.15      19.23      41.18
C      19.15      19.22      39.77
C      18.29      13.27      29.78
C      19.49      12.53      29.79
C      19.47      11.12      29.78
C      18.25      10.39      29.76
C      17.05      11.15      29.75
C      17.07      12.57      29.76
C      18.23       8.95      29.75
C      17.26       8.23      28.99
C      17.23       6.82      28.98
C      18.17       6.06      29.72
C      19.13       6.77      30.48
C      19.15       8.18      30.50
C      18.32      18.19      24.81
C      19.52      18.06      24.09
C      17.11      18.32      24.08
C      17.12      18.32      22.67
C      18.33      18.18      21.93
C      19.53      18.06      22.68
C      18.33      18.17      20.49
C      19.19      17.31      19.76
C      19.21      17.29      18.35
C      18.36      18.14      17.60
C      17.50      19.00      18.32
C      17.49      19.02      19.73
C      18.51      17.01      13.41
C      17.92      18.18      13.96
C      17.53      19.18      13.03
C      18.30      17.90      11.18
C      18.92      15.79      14.15
C      18.50      17.69       9.82
C      17.63      18.38      15.31
C      17.01      17.87      47.77
C      18.14      18.55      48.32
C      19.11      18.98      47.38
C      17.90      18.08      45.54
C      15.82      17.39      48.51
C      17.71      17.85      44.19
C      18.32      18.87      49.67
C       1.58      19.69      64.20
C       2.13      18.39      64.35
C       1.19      17.32      64.38
C      33.71      18.81      64.15
C       2.34      20.97      64.21
C      32.35      19.08      64.13
C       3.48      18.10      64.59
C      19.60       0.22      29.84
C      18.29      34.04      29.98
C      17.23       0.61      30.01
C      18.71       2.46      29.77
C      20.87      33.83      29.85
C      18.98       3.82      29.76
C      18.00      32.70      30.23
N      32.45       0.08      66.61
N       1.13       0.06      66.60
N       1.14      34.36       0.92
N      32.45       0.01       0.93
N      20.44       0.22      67.90
N      33.99      34.09      54.64
N      13.08      34.17      68.08
N      33.97       0.06      12.90
N      34.33       1.37      32.24
N      34.32      32.68      32.23
N      34.31      32.73      35.28
N      34.33       1.42      35.29
N       0.12      13.36      33.53
N       0.06      34.06      20.27
N      34.07      20.73      33.71
N       0.04      34.40      47.26
N      33.73       0.66      15.69
N       0.31      32.93      16.06
N       0.60       0.39      50.05
N      32.95      33.67      50.42
N      15.85      33.56      68.29
N      16.23       1.48      68.11
N      33.46      17.95      33.92
N       1.37      17.58      33.74
N      24.45      26.44      64.61
N      27.50      26.43      64.60
N      27.44      26.41      67.65
N      24.39      26.43      67.66
N      12.45      26.59      65.90
N      25.99      26.09      52.64
N       5.08      26.16      66.08
N      25.97      26.43      10.90
N      26.33      27.73      30.24
N      26.32      24.68      30.23
N      26.32      24.73      33.28
N      26.33      27.78      33.29
N      26.49       5.36      31.53
N      26.43      26.06      18.27
N      26.07      12.73      31.71
N      26.41      26.40      45.26
N      25.73      27.02      13.69
N      26.67      24.93      14.06
N      26.97      26.75      48.05
N      24.95      25.67      48.42
N       7.86      25.56      66.29
N       8.23      27.84      66.11
N      25.46       9.95      31.92
N      27.74       9.58      31.74
N      16.45      18.44      62.61
N      19.50      18.43      62.60
N      19.45      18.41      65.65
N      16.39      18.43      65.66
N       4.45      18.59      63.90
N      17.99      18.09      50.64
N      31.45      18.16      64.08
N      17.98      18.43       8.90
N      18.33      19.73      28.24
N      18.32      16.67      28.23
N      18.32      16.73      31.28
N      18.33      19.78      31.29
N      18.49      31.73      29.53
N      18.43      18.06      16.27
N      18.07       4.73      29.71
N      18.41      18.40      43.26
N      17.73      19.02      11.69
N      18.67      16.93      12.06
N      18.97      18.75      46.05
N      16.95      17.67      46.42
N      34.22      17.55      64.29
N       0.23      19.84      64.11
N      17.46       1.95      29.92
N      19.74       1.57      29.74
