166

C       4.01       8.58       5.22
C      15.48       9.69       5.55
C       2.49       8.82       3.30
C       6.16       1.02       0.74
C       7.74      12.32       0.65
C       6.00      12.99       2.32
C      11.24      15.41       6.81
C       9.47       4.02       6.48
C      11.10      16.94       8.73
C      18.67      12.83      11.28
C       7.30      11.90      11.38
C       6.72      13.68       9.71
C      16.03      10.34       6.81
C       4.56       9.23       6.48
C      17.55      10.11       8.73
C      13.88      17.90      11.28
C      12.30       6.60      11.38
C      14.04       5.93       9.71
C       8.80       3.51       5.22
C      10.57      14.90       5.55
C       8.94       1.98       3.30
C       1.37       6.09       0.74
C      12.74       7.02       0.65
C      13.32       5.24       2.32
C       4.10       3.87       2.00
C       4.68       4.42       0.88
C       9.87       9.32      11.66
C       8.85       8.36      11.56
C       2.64       2.49       0.67
C       3.09       2.92       1.92
C      15.94      15.05      10.03
C      15.36      14.50      11.15
C      10.17       9.61       0.37
C      11.19      10.56       0.47
C      17.40      16.43      11.36
C      16.95      16.00      10.11
H       4.73       8.43       4.59
H       3.62       7.72       5.44
H      15.04       8.86       5.77
H      14.82      10.28       5.14
H       2.08       7.96       3.50
H       3.25       8.66       2.72
H       6.85       1.25       1.39
H       5.39       1.58       0.91
H       7.48      11.39       0.73
H       8.44      12.49       1.30
H       5.29      13.64       2.46
H       6.70      13.18       2.97
H       3.35      10.24       4.38
H       5.91      12.99       0.33
H      11.35      14.68       7.44
H      12.12      15.75       6.58
H      10.33       4.41       6.26
H       8.93       4.71       6.89
H      11.97      17.30       8.53
H      11.21      16.18       9.30
H      18.39      12.16      10.64
H      18.15      13.63      11.12
H       8.24      12.11      11.30
H       7.08      11.22      10.73
H       6.12      14.42       9.57
H       6.50      12.99       9.06
H       9.63      16.17       7.65
H       6.73      13.77      11.69
H      15.31      10.49       7.44
H      16.42      11.20       6.58
H       4.99      10.06       6.26
H       5.22       8.64       6.89
H      17.96      10.96       8.53
H      16.79      10.26       9.30
H      13.19      17.67      10.64
H      14.65      17.34      11.12
H      12.56       7.53      11.30
H      11.60       6.43      10.73
H      14.75       5.28       9.57
H      13.34       5.74       9.06
H      16.69       8.68       7.65
H      14.13       5.93      11.69
H       8.69       4.24       4.59
H       7.91       3.17       5.44
H       9.70      14.51       5.77
H      11.11      14.21       5.14
H       8.06       1.62       3.50
H       8.83       2.75       2.72
H       1.65       6.76       1.39
H       1.89       5.29       0.91
H      11.80       6.81       0.73
H      12.96       7.71       1.30
H      13.92       4.50       2.46
H      13.54       5.93       2.97
H      10.41       2.76       4.38
H      13.31       5.15       0.33
H       5.35       5.05       0.96
H      10.25       9.67      10.89
H       8.56       8.08      10.72
H       2.72       2.56       2.70
H      14.69      13.87      11.07
H       9.79       9.25       1.14
H      11.48      10.84       1.31
H      17.32      16.36       9.33
N       2.97       9.44       4.58
N       6.56      13.19       0.94
N      10.45      16.50       7.45
N       6.49      13.13      11.09
N      17.07       9.48       7.45
N      13.48       5.73      11.09
N       9.59       2.42       4.58
N      13.55       5.80       0.94
Nd       2.74      11.53       0.00
Nd      11.67       2.08       0.00
Nd      14.25      13.46       3.04
Nd       5.79       5.46       8.99
O      13.53       9.43       2.86
O       1.57       9.59       0.93
O      15.26      11.30       2.70
O       6.51      10.38       2.83
O       4.55      11.52       3.95
O       4.49      10.94       1.46
O       2.57      13.61       1.25
O       5.59       2.65       3.89
O       6.18       4.66       3.41
O       9.85       5.95       9.17
O      10.38      17.91      11.10
O       7.88       4.33       9.33
O       9.31      13.02       9.20
O       8.27      15.03       8.08
O       8.86      15.07      10.57
O       6.30      17.14      10.78
O      17.08      13.49       8.14
O      15.03      13.02       8.62
O       6.51       9.49       9.17
O      18.47       9.33      11.10
O       4.78       7.62       9.33
O      13.53       8.55       9.20
O      15.48       7.40       8.08
O      15.55       7.98      10.57
O      17.47       5.31      10.78
O      14.45      16.27       8.14
O      13.86      14.26       8.62
O      10.19      12.97       2.86
O       9.66       1.01       0.93
O      12.16      14.59       2.70
O      10.73       5.90       2.83
O      11.77       3.89       3.95
O      11.18       3.85       1.46
O      13.74       1.79       1.25
O       2.96       5.43       3.89
O       5.01       5.90       3.41
O       6.67       6.30      11.12
O       4.02       3.79       4.68
O      13.36      12.62       0.91
O      16.02      15.13       7.35
P      14.90       9.86       2.41
P       5.33      11.33       2.67
P       9.34       4.62       9.62
P       8.42      14.25       9.36
P       5.14       9.06       9.62
P      14.71       7.59       9.36
P      10.70      14.30       2.41
P      11.62       4.67       2.67
P       1.34       1.26       0.53
P      18.70      17.66      11.50
S       5.03       3.97       3.65
S      15.79      14.12       8.38
S      15.01      14.95       8.38
S       4.25       4.80       3.65
