15

O      12.90       5.29       5.94
O      15.14       5.42       6.24
N      16.59       1.94       2.45
N      16.03       1.07       1.58
N      14.70       1.09       1.64
H      12.17       1.96       2.66
H      12.11       3.68       4.48
H      16.42       3.92       4.59
C      15.55       2.54       3.13
C      14.35       1.99       2.60
C      13.08       2.39       3.07
C      13.06       3.34       4.08
C      14.26       3.89       4.61
C      15.52       3.50       4.15
C      14.11       4.94       5.67
