15

C      11.05       4.21       8.81
H      13.07       3.67       8.22
H      13.09       1.70       9.78
H       9.08       2.57      11.13
N      10.77       5.35       8.11
N       9.52       5.69       8.41
O      11.98      -0.02      11.24
N       8.94       4.83       9.27
C       9.90       3.88       9.57
O      10.66       1.15      12.66
C      12.22       3.42       8.84
C      12.21       2.34       9.69
C      11.10       2.06      10.53
C       9.92       2.81      10.48
C      11.24       0.98      11.55
