15

H       5.11      12.68      11.81
H       5.17      10.96       9.99
H       0.87      10.72       9.88
O       4.38       9.35       8.53
C       1.74      12.10      11.34
C       2.94      12.64      11.87
C       4.20      12.25      11.40
C       4.23      11.30      10.39
C       3.03      10.75       9.86
C       1.77      11.14      10.32
N       0.70      12.70      12.02
N       2.59      13.55      12.83
C       3.18       9.70       8.80
O       2.14       9.22       8.24
N       1.26      13.57      12.89
