14

Zn      -3.50       7.28      10.15
C      -4.68       8.53       7.78
C      -2.39       8.28       7.43
C      -5.82       8.30       8.64
N      -3.45       8.08       8.26
N      -2.96       8.72      11.56
N      -4.38       5.96      11.60
C      -2.13       8.38      12.57
C      -3.25      10.03      11.40
C      -3.90       4.72      11.86
O      -5.59       7.82       9.82
O      -1.87       6.04      10.20
C      -5.47       6.36      12.28
C      -0.68       6.52      10.05
