12

Zn       3.47       4.07      13.93
H       0.96       3.23      14.78
C       5.15       4.23      16.36
N       1.46       3.86      14.14
N       0.70       4.58      13.41
C       4.80       4.20      11.19
O       3.97       2.19      13.86
O       3.72       6.02      13.92
O       3.95       4.10      15.85
O       3.73       4.11      11.93
C       5.15       1.71      13.74
C       4.80       6.73      13.81
