126

Nd       1.02       0.39      30.80
Nd       3.06       0.48      34.39
Nd       2.19       0.56      25.98
Nd       4.15       0.46      22.22
Nd       4.11       0.48      17.50
Nd       2.07       0.42      13.88
Nd       4.66       0.39       5.39
Nd       2.62       0.48       8.98
Nd       3.49       0.56      51.39
Nd       1.53       0.46      47.63
Nd       1.57       0.48      42.91
Nd       3.61       0.42      39.29
H       2.52       1.20      19.64
H       2.25      -0.11      20.01
H       3.16       1.20      45.06
H       3.43      -0.11      45.42
C       4.37       2.66      25.02
C       0.64       2.74      28.40
C       0.77      -1.59      28.04
C       3.68       2.40      31.48
C       3.28      -1.56      31.35
C       0.99       2.59      33.67
C       4.41      -1.66      36.67
C       4.43       2.65      36.87
C       0.49      -1.61      33.50
C       4.88      -1.36      24.93
C       2.04      -1.51      22.90
C       1.59       2.47      23.02
C       5.33      -1.66      19.83
C       5.46       2.64      19.99
C       1.48      -1.55      16.66
C       4.75       2.35      14.60
C       4.26      -1.60      14.50
C       2.00       2.53      16.80
C       1.31       2.66      50.43
C       5.04       2.74      53.81
C       4.92      -1.59      53.45
C       2.00       2.40       6.06
C       2.41      -1.56       5.94
C       4.69       2.59       8.26
C       1.27      -1.66      11.26
C       1.26       2.65      11.46
C       5.20      -1.61       8.09
C       0.80      -1.36      50.35
C       3.64      -1.51      48.31
C       4.09       2.47      48.43
C       0.35      -1.66      45.24
C       0.23       2.64      45.40
C       4.20      -1.55      42.07
C       0.93       2.35      40.01
C       1.42      -1.60      39.91
C       3.69       2.53      42.21
O       3.74       2.44      26.06
O       4.45       1.86      24.05
O       1.27       2.08      27.56
O       0.39       2.36      29.56
O       1.50      -1.54      27.02
O       0.48      -0.62      28.79
O       3.04       1.69      30.62
O       3.83       2.15      32.67
O       3.08      -0.78      32.31
O       1.00       1.68      32.78
O       1.62       2.47      34.74
O       3.81      -1.49      35.61
O       4.58      -0.80      37.58
O       4.31       2.39      38.05
O       4.19       1.87      35.90
O       0.23      -1.31      32.32
O       1.12      -0.92      34.35
O       2.70      -1.38      30.24
O       5.21      -1.09      23.74
O       4.20      -0.65      25.69
O       2.20      -0.68      23.82
O       2.66      -1.45      21.82
O       1.45       2.15      24.22
O       2.22       1.82      22.14
O       5.44      -0.80      20.73
O       4.75      -1.54      18.74
O       5.38       2.33      21.21
O       5.12       1.90      19.06
O       2.86       0.46      19.85
O       2.10      -0.85      17.47
O       1.25      -1.28      15.45
O       4.95       2.09      15.82
O       4.13       1.64      13.78
O       4.11      -0.78      15.45
O       3.66      -1.45      13.41
O       2.56       2.40      17.91
O       2.12       1.70      15.88
O       1.95       2.44      51.47
O       1.23       1.86      49.47
O       4.42       2.08      52.97
O       5.30       2.36      54.97
O       4.18      -1.54      52.44
O       5.20      -0.62      54.20
O       2.64       1.69       5.21
O       1.86       2.15       7.26
O       2.60      -0.78       6.90
O       4.68       1.68       7.37
O       4.07       2.47       9.33
O       1.87      -1.49      10.20
O       1.10      -0.80      12.16
O       1.38       2.39      12.64
O       1.49       1.87      10.49
O       5.45      -1.31       6.90
O       4.57      -0.92       8.94
O       2.99      -1.38       4.83
O       0.47      -1.09      49.15
O       1.48      -0.65      51.10
O       3.49      -0.68      49.23
O       3.02      -1.45      47.23
O       4.24       2.15      49.63
O       3.46       1.82      47.55
O       0.25      -0.80      46.14
O       0.93      -1.54      44.15
O       0.30       2.33      46.62
O       0.56       1.90      44.47
O       2.82       0.46      45.27
O       3.59      -0.85      42.89
O       4.43      -1.28      40.86
O       0.74       2.09      41.23
O       1.56       1.64      39.19
O       1.57      -0.78      40.87
O       2.03      -1.45      38.82
O       3.13       2.40      43.33
O       3.57       1.70      41.29
