92

H       2.53       4.47       9.79
H       5.86       1.61      -1.16
H       2.03       6.82     -10.53
H       1.26       7.13      -8.91
H      -0.95       6.59      -9.84
H      -0.15       7.84     -10.86
H      -0.22       6.12     -11.42
H       7.05       1.41       8.80
H       6.29       1.68      10.43
H       5.82       4.29      -9.73
H       8.53       2.36      11.33
H       8.51       0.68      10.68
H       9.27       2.00       9.72
H       3.67       8.72      -3.30
H       2.69       8.95      -1.79
H       0.92      10.08      -3.08
H       2.51      10.90      -3.29
H       1.87       9.85      -4.61
H       6.66       0.79       3.88
H       6.60       0.15       2.19
H       5.92      -2.08       3.04
H       7.49      -1.54       3.74
H       5.98      -1.46       4.73
H       3.01       7.11       3.59
H       5.78       1.77      -3.55
H       1.81       5.17      -6.96
H       6.38       3.27       6.90
H       2.68       7.23       1.24
C       3.30       5.63      -3.39
C       4.66       4.03       9.73
C       3.67       4.56      -9.73
C       3.07       5.23      -0.59
C       4.18       2.91       0.59
C       4.35       3.15      -0.79
C       3.22       5.16       0.81
C       3.76       4.29      -1.38
C       3.75       3.98       1.40
C       2.32       6.25      -1.25
C       4.44       1.65       1.21
C       2.55       6.53      -2.60
C       4.52       1.55       2.61
C       4.81       4.18      11.18
C       3.54       4.36     -11.18
C       2.96       6.27       1.64
C       5.18       2.33      -1.59
C       3.84       4.97       4.97
C       3.87       3.89       2.80
C       4.50       3.65      -4.95
C       4.34       2.64       4.83
C       3.45       5.79      -4.78
C       5.54       3.52       7.54
C       2.68       5.00      -7.57
C       5.73       3.63       8.92
C       2.54       4.91      -8.95
C       3.38       4.20       9.17
C       4.93       4.49      -9.13
C       3.19       4.05       7.80
C       3.86       4.49      -2.78
C       5.08       4.68      -7.76
C       4.28       3.74       6.98
C       3.93       4.86      -6.96
C       1.21       6.51      -9.84
C      -0.11       6.78     -10.53
C       7.10       2.01       9.73
C       8.44       1.75      10.41
C       2.64       8.78      -2.88
C       1.94       9.98      -3.51
C       6.15       0.07       3.20
C       3.62       5.03       3.59
C       6.40      -1.34       3.71
C       4.52       3.53      -3.57
C       3.19       6.22       3.00
C       5.20       2.47      -2.96
C       4.26       2.68       3.42
Br       1.42       4.27       7.10
Br       6.83       4.71      -7.01
Br       0.72       7.02      -0.47
Br       4.39      -0.02       0.24
N       4.14       3.78       5.56
N       4.01       4.79      -5.53
O       4.93       2.63      -5.72
O       3.04       6.92      -5.38
O       4.60       1.48       5.47
O       1.30       5.14      -9.51
O       6.99       3.39       9.44
O       1.90       7.61      -3.18
O       4.76       0.31       3.18
O       6.00       4.34      11.69
O       2.36       4.20     -11.69
O       3.75       4.11      11.92
O       4.60       4.43     -11.92
O       3.74       6.09       5.71
