17

O       4.88      11.56      21.47
O       7.02      10.75      20.38
O       6.67      13.16      20.75
O       2.57      13.17      14.63
O       2.36      10.99      14.78
H       4.38      13.84      19.14
C       5.12      11.97      18.87
C       5.13      10.90      17.99
C       4.37      10.91      16.82
C       3.63      12.07      16.51
C       3.66      13.16      17.38
C       4.38      13.10      18.54
C       2.79      12.09      15.25
H       5.65      10.13      18.19
H       4.36      10.16      16.24
H       3.17      13.95      17.16
P       5.97      11.86      20.45
