17

H       0.33      10.13       7.16
H       1.62      10.16       5.21
C       0.85      11.97       7.84
C       0.85      10.90       6.96
C       1.60      10.91       5.79
C       2.35      12.07       5.49
C       2.32      13.16       6.35
C       1.59      13.10       7.52
C       3.19      12.09       4.23
H       2.80      13.95       6.13
H       1.60      13.84       8.11
O       3.41      13.17       3.60
O       1.09      11.56      10.44
O      -1.05      10.75       9.36
O      -0.69      13.16       9.73
P       0.00      11.86       9.42
O       3.62      10.99       3.75
