77

C       2.40       0.71       0.45
C       3.73       0.26       0.46
C       3.72      16.14       0.45
C       2.39      15.70       0.42
C       2.07      14.33       0.37
C       3.09      13.34       0.35
C       4.43      13.79       0.40
C       4.75      15.17       0.44
C       4.76       1.23       0.47
C       4.45       2.61       0.46
C       3.11       3.07       0.45
C       2.09       2.09       0.45
C       0.53      16.87      16.58
C       8.96      16.87      17.03
C       8.96      16.86       1.16
C       0.54      16.85       1.59
C       7.94      16.84       2.13
C       8.26      16.79       3.51
C       9.61      16.77       3.96
C       0.87      16.80       2.97
C       0.85      16.87      15.21
C       9.57      16.87      14.22
C       8.23      16.86      14.69
C       7.93      16.86      16.07
C       1.47      16.86       0.44
C       0.21      16.63       5.31
C       0.17      16.87      12.86
C       2.76       4.44       0.45
C       2.74      11.99       0.21
C       9.28      16.89       7.65
C       0.73      16.94       8.41
C       0.66      16.92       9.83
C       9.18      16.86      10.53
C       7.99      16.81       9.77
C       8.05      16.83       8.35
C       3.51       6.76       0.46
C       4.70       7.53       0.47
C       4.63       8.95       0.49
C       3.41       9.65       0.49
C       2.21       8.88       0.50
C       2.28       7.46       0.47
H       7.46      16.86      14.02
H       6.95      16.85      16.36
H       6.96      16.84       1.85
H       7.49      16.75       4.18
H       1.86      16.77       3.24
H       1.84      16.87      14.93
H       1.08      14.06       0.34
H       5.20      13.12       0.36
H       5.73      15.45       0.46
H       1.10       2.36       0.44
H       5.73       0.94       0.47
H       5.23       3.28       0.47
H       1.14      16.89      12.63
H       1.10      16.25       5.51
H       1.80       4.66       0.43
H       1.86      11.78      17.09
H       1.53      16.97      10.36
H       7.18      16.81       7.82
H       5.51       9.48       0.50
H       1.40       6.94       0.48
N       6.74      16.75      10.44
N       1.98      17.05       7.76
N       9.19      16.93       6.30
N       9.08      16.85      11.88
N       0.95       9.53       0.55
N       5.94       6.86       0.47
N       3.61       5.41       0.46
N       3.50      11.00       0.54
O       6.11      15.71      10.14
O       2.58       0.82       8.07
O       2.72      16.08       8.03
O       6.02       0.45      10.16
O       0.31       9.22       1.59
O       6.62       7.13       1.49
O       6.62       7.15      16.74
O       0.25       9.26      16.84
