42

C      -1.98       1.11      14.99
C      -2.33       0.11      14.06
C      -3.62       0.02      13.57
C      -4.60       0.95      13.97
H      -9.35      -1.14      10.91
H     -11.68      -1.27      10.00
H     -13.35       0.48      10.60
H     -12.69       2.39      12.07
H     -11.15       6.77      15.55
H     -10.52       8.60      17.14
H      -8.25       8.63      18.17
H      -6.58       6.88      17.57
H      -2.69       2.82      16.12
H      -0.97       1.16      15.37
H      -1.58      -0.61      13.72
H      -3.91      -0.76      12.86
N      -8.44       0.72      12.51
N     -10.32       2.74      13.16
N      -9.60       4.78      14.84
N      -7.00       4.87      15.92
N      -5.18       2.92      15.29
N      -5.88       0.88      13.46
C      -9.07       2.75      13.66
C      -8.12       1.74      13.32
C      -9.72       0.67      12.01
C     -10.10      -0.39      11.16
C     -11.39      -0.45      10.66
C     -12.33       0.54      10.99
C     -11.98       1.61      11.81
C     -10.67       1.69      12.33
C      -7.38       3.88      15.10
C      -8.69       3.83      14.56
C      -9.24       5.80      15.68
C     -10.16       6.81      16.01
C      -9.80       7.82      16.89
C      -8.52       7.85      17.46
C      -7.58       6.87      17.14
C      -7.92       5.84      16.24
C      -6.77       1.81      13.85
C      -6.41       2.85      14.75
C      -4.25       1.98      14.90
C      -2.94       2.03      15.41
