42

C      -0.82       6.93      16.19
C      -2.07       6.37      16.54
C      -2.58       6.06      14.29
C      -3.47       5.63      13.28
C      -3.11       5.77      11.94
C      -1.87       6.33      11.59
C      -0.98       6.74      12.57
C      -1.31       6.62      13.93
C      -0.28       7.29      18.59
C       0.09       7.40      17.23
C       2.13       8.35      17.84
C       3.38       8.89      17.50
C       4.23       9.37      18.49
C       3.85       9.30      19.85
C       2.62       8.75      20.21
C       1.75       8.26      19.22
H      -4.42       5.19      13.58
H      -3.80       5.43      11.17
C      -2.44       6.23      17.94
C      -1.57       6.71      18.96
H      -1.61       6.44      10.54
H      -0.01       7.18      12.31
H       3.65       8.94      16.45
C      -3.07       6.02      20.59
H       5.19       9.80      18.23
H       4.51       9.70      20.62
H       2.31       8.69      21.25
C      -3.44       5.89      21.95
C      -3.94       5.50      19.58
C      -5.13       4.85      19.95
H      -5.78       4.46      19.16
C      -5.46       4.71      21.29
H      -6.38       4.18      21.56
C      -4.62       5.23      22.29
H      -4.89       5.11      23.34
N      -2.94       5.94      15.61
N      -0.43       7.04      14.90
N       1.27       7.91      16.86
N       0.54       7.71      19.57
N      -1.89       6.63      20.26
N      -3.60       5.62      18.25
H      -2.78       6.29      22.71
