42

C       5.58      -3.90      11.08
C       6.43      -3.37      12.08
C       6.09      -3.52      13.42
C       4.90      -4.17      13.79
H       5.38      -3.86      19.79
N       3.90      -4.60      17.76
N      -0.31      -6.58      16.51
N       1.40      -5.71      18.47
H       4.76      -4.10      22.20
H       2.58      -5.11      22.83
N       0.42      -6.38      13.80
N       2.85      -5.30      13.11
H      -1.35      -7.36      12.12
H      -4.23      -8.46      15.14
H      -3.54      -8.36      12.75
H      -2.69      -7.60      16.92
H       0.97      -5.84      21.06
N       4.56      -4.29      15.12
H       3.74      -4.96      10.66
H       5.85      -3.78      10.03
H       7.34      -2.85      11.81
H       6.74      -3.13      14.21
C       1.78      -5.60      17.18
C       3.03      -5.03      16.83
C       3.54      -4.73      19.08
C       4.43      -4.30      20.09
C       4.08      -4.43      21.43
C       2.84      -5.00      21.78
C       1.94      -5.41      20.80
C       2.28      -5.29      19.44
C       1.25      -5.96      14.77
C       0.87      -6.06      16.14
C      -1.16      -7.01      15.53
C      -2.42      -7.56      15.87
C      -3.26      -8.03      14.88
C      -2.88      -7.97      13.52
C      -1.66      -7.42      13.16
C      -0.79      -6.93      14.15
C       3.40      -4.89      15.43
C       2.53      -5.38      14.41
C       4.03      -4.69      12.78
C       4.41      -4.55      11.42
