13

La       0.86      -2.08       8.29
O       1.80       0.25       8.64
O      -0.03      -4.42       8.71
O       2.06      -2.75      10.31
O       2.48      -3.21       6.89
C       3.06       0.19       8.56
O      -0.29      -1.40      10.33
O      -0.80      -0.93       6.93
C      -1.29      -4.35       8.57
C       3.10      -4.34       6.70
C      -1.38       0.21       6.69
C       1.54      -2.52      11.45
C       0.24      -1.64      11.46
