14

O       0.93      13.20       7.19
H      -2.60      16.02       8.22
O       1.70      14.02       5.22
H       0.32      15.97       4.34
O       0.92      18.75       5.34
C      -0.22      15.00       6.20
C      -1.92      16.00       7.36
O       0.15      17.95       7.33
C       0.89      14.00       6.14
C      -2.07      16.97       6.35
C      -0.36      15.97       5.19
C       0.97      17.97       6.41
N      -1.02      15.02       7.29
N      -1.27      16.95       5.27
