15

C       5.94       1.96      13.45
C       6.25       3.72      10.21
H       5.52       1.16      12.83
Sn       7.01       3.34      12.19
C       8.95       4.06      12.82
H       6.62       1.52      14.18
H       5.13       2.49      13.97
H       6.50       2.88       9.56
H       5.17       3.85      10.26
H       6.70       4.65       9.83
H       8.82       4.78      13.64
H       9.55       3.21      13.16
H       9.45       4.55      11.98
O       5.86       5.06      13.15
C       6.12       6.24      12.71
