15

H       4.49       3.96       1.26
H       3.39       3.61       2.61
H       4.87       2.64       2.40
H       3.50       2.25      -2.02
Sn       2.99       1.78       0.62
H       4.84       1.28      -1.31
C       4.07       3.16       1.87
C       3.75       1.40      -1.36
C       1.06       1.07       1.25
H       3.30       0.48      -1.74
H       1.18       0.35       2.07
H       0.46       1.92       1.59
H       0.55       0.58       0.41
C       3.88      -1.11       1.14
O       4.14       0.07       1.57
