15

Sn       2.01       6.91      22.53
H       0.51       9.09      21.89
H       1.62       8.73      20.54
H       0.13       7.76      20.75
H       1.50       7.37      25.16
H       0.16       6.41      24.46
H       1.70       5.61      24.89
H       3.82       5.48      21.08
H       4.54       7.05      21.56
H       4.45       5.70      22.73
O       0.86       5.20      21.57
C       1.12       4.02      22.01
C       0.94       8.29      21.27
C       1.25       6.53      24.51
C       3.95       6.20      21.89
