15

Sn       3.28       4.62      17.71
C       0.62       3.87      19.03
O       1.86       3.52      19.10
H       2.61       7.26      17.60
H       3.76       6.99      18.94
H       2.02       6.56      19.14
H       2.33       4.74      15.16
H       3.24       3.23      15.38
H       1.56       3.37      15.99
H       4.51       3.04      19.56
H       5.70       4.16      18.82
H       5.19       2.70      17.95
C       2.86       6.60      18.44
C       2.50       3.90      15.83
C       4.86       3.49      18.63
