15

C       9.86       6.77      16.09
H      10.19       7.56      16.77
Sn       8.28       5.64      17.01
H       9.51       7.22      15.16
H      10.70       6.10      15.90
H       8.76       3.27      15.78
C       7.50       6.35      18.89
C       7.87       3.65      16.28
O       6.86       6.73      15.62
C       5.63       6.38      15.68
H       7.61       3.00      17.12
H       7.03       3.70      15.58
H       7.33       5.51      19.56
H       8.24       7.03      19.34
H       6.56       6.88      18.73
