20

Gd       0.88       5.02       0.17
Gd      -3.24       3.67      -0.17
O      -1.58       5.34       0.39
O      -0.32       6.59       1.73
O      -3.84       4.30       2.02
O       2.41       5.33       1.83
O       2.55       3.35      -0.39
O      -4.45       2.10      -1.74
O       0.14       3.18       1.30
O      -1.92       2.29       1.14
O      -3.98       5.51      -1.30
O       2.20       6.40      -1.14
C      -0.72       3.78      -2.52
C      -1.46       6.19       1.36
C       3.40       4.90       2.52
C       2.67       2.50      -1.36
C      -0.87       2.58       1.81
C       3.25       6.11      -1.81
O       0.28       4.39      -2.02
O      -1.71       3.36      -1.83
