284

C      16.68      15.92       8.55
C      15.27      15.94       8.51
C      15.26       1.08       8.55
C      16.68       1.11       8.59
C      17.32       2.38       8.63
C      16.59       3.60       8.63
C      15.18       3.53       8.58
C      14.53       2.29       8.54
C      14.54      14.74       8.46
C      15.20      13.50       8.47
C      16.61      13.43       8.53
C      17.33      14.65       8.56
C       0.94      17.23       7.33
C       2.36      17.19       7.38
C       2.30      17.13       9.90
C       0.88      17.18       9.89
C       2.98      17.10      11.14
C       2.28      17.15      12.35
C       0.87      17.21      12.37
C       0.19      17.21      11.13
C       0.31      17.28       6.06
C       1.04      17.33       4.86
C       2.45      17.30       4.94
C       3.10      17.23       6.18
C       0.10      17.21       8.59
C       3.10      17.13       8.66
C      14.49      17.20       8.50
C       0.16       0.00      13.55
C      17.26      12.20       8.53
C       0.36       0.02       3.65
C      17.23       4.83       8.63
C       1.55      16.35      43.17
C       1.53      14.94      43.20
C      16.39      14.94      43.16
C      16.36      16.36      43.13
C      15.09      17.00      43.11
C      13.87      16.28      43.10
C      13.94      14.87      43.14
C      15.18      14.21      43.16
C       2.73      14.21      43.23
C       3.97      14.87      43.23
C       4.04      16.28      43.19
C       2.82      17.00      43.18
C       0.29       0.58      41.86
C       0.34       1.99      41.88
C       0.32       2.00      44.40
C       0.25       0.59      44.42
C       0.31       2.73      45.61
C       0.21       2.06      46.84
C       0.13       0.66      46.90
C       0.17      17.32      45.68
C       0.28      17.30      40.60
C       0.29       0.63      39.38
C       0.35       2.04      39.43
C       0.38       2.71      40.66
C       0.27      17.16      43.14
C       0.37       2.77      43.14
C       0.26      14.16      43.19
C      17.27      17.37      48.09
C       5.27      16.92      43.20
C       0.27      17.35      38.17
C      12.64      16.91      43.12
C       0.66      15.87      60.54
C       2.08      15.90      60.58
C       2.09       1.03      60.43
C       0.67       1.06      60.40
C       0.03       2.34      60.34
C       0.76       3.55      60.30
C       2.17       3.47      60.33
C       2.82       2.24      60.39
C       2.81      14.69      60.66
C       2.15      13.46      60.69
C       0.74      13.39      60.63
C       0.01      14.61      60.58
C      16.43      17.23      61.74
C      15.01      17.22      61.72
C      15.02      17.05      59.20
C      16.44      17.09      59.19
C      14.31      16.95      57.99
C      14.98      16.92      56.76
C      16.39      16.97      56.70
C      17.10      17.05      57.93
C      17.08      17.33      63.00
C      16.37       0.05      64.21
C      14.95       0.05      64.16
C      14.29      17.32      62.93
C      17.24      17.16      60.47
C      14.24      17.11      60.46
C       2.86      17.16      60.52
C      17.08      17.04      55.49
C       0.09      12.16      60.63
C      17.05       0.15      65.41
C       0.12       4.78      60.32
C      15.91      16.34      25.96
C      15.93      14.92      25.94
C       1.07      14.91      25.87
C       1.10      16.33      25.89
C       2.37      16.97      25.88
C       3.58      16.24      25.85
C       3.51      14.83      25.80
C       2.27      14.18      25.81
C      14.72      14.20      25.95
C      13.49      14.86      25.98
C      13.42      16.28      26.01
C      14.64      17.00      25.99
C      17.24       0.56      27.22
C      17.23       1.98      27.20
C      17.14       1.99      24.68
C      17.17       0.57      24.65
C      17.10       2.72      23.47
C      17.10       2.06      22.24
C      17.13       0.64      22.17
C      17.16      17.30      23.39
C      17.28      17.28      28.48
C      17.31       0.62      29.69
C      17.33       2.03      29.64
C      17.28       2.70      28.41
C      17.20      17.14      25.93
C      17.17       2.76      25.94
C      17.19      14.15      25.88
C      17.23      17.36      20.96
C      12.19      16.93      25.99
C      17.37      17.35      30.91
C       4.82      16.87      25.84
C       0.60      16.22      16.90
C      17.02       0.18      18.60
C      16.82       0.87      16.34
C       0.17      17.12      15.91
C       0.99       0.35      51.46
C      16.88      16.94      53.13
C      16.21      16.87      50.86
C       0.06       0.04      50.45
C       1.35       0.12       0.22
C      16.97      17.23      67.76
C      16.51      16.92       0.94
C       0.46      17.22       1.28
C      15.76       0.85      35.25
C      16.62       0.13      33.16
C       0.29      16.78      35.16
C      16.77       0.15      35.94
C       0.42       9.14       8.41
C      16.94       7.12       9.31
C      16.11       9.19      10.13
C      16.95       9.90       9.24
C       8.32       0.09      43.34
C      10.35      16.64      42.43
C       8.29      15.82      41.60
C       7.57      16.64      42.49
C      16.92       9.09      60.65
C       0.42       7.09      59.72
C       1.26       9.18      58.98
C       0.41       9.87      59.86
C       9.14       0.08      25.76
C       7.09      16.60      26.60
C       9.13      15.80      27.50
C       9.87      16.63      26.63
H       3.03      17.33       4.09
H       4.12      17.21       6.20
H       4.01      17.07      11.16
H       2.82      17.17      13.22
H      16.55      17.27      11.13
H      16.67      17.30       6.02
H       0.96       2.42       8.65
H      14.61       4.38       8.55
H      13.51       2.28       8.50
H       0.97      14.61       8.59
H      13.51      14.74       8.42
H      14.63      12.65       8.42
H       3.71      16.21       8.65
H       3.78       0.60       8.70
H      13.82      17.19       9.37
H      13.88      17.22       7.59
H      16.77       0.24       3.65
H      16.69       0.51      13.52
H       0.72      12.09       8.02
H       0.66       4.97       8.07
H       0.39       2.60      38.57
H       0.42       3.74      40.66
H       0.34       3.75      45.61
H       0.15       2.63      47.70
H       0.11      16.30      45.71
H       0.25      16.27      40.57
H      15.05       0.65      43.10
H      13.09      14.30      43.17
H      15.19      13.18      43.20
H       2.86       0.64      43.16
H       2.72      13.18      43.26
H       4.82      14.30      43.27
H       1.29       3.37      43.15
H      16.91       3.46      43.12
H       0.25      13.54      44.09
H       0.28      13.50      42.32
H       0.87      16.57      38.03
H      16.72      16.54      48.07
H       5.38       0.38      43.73
H      12.51       0.34      43.68
H      14.39       0.13      65.01
H      13.26      17.32      62.92
H      13.29      16.93      57.99
H      14.42      16.88      55.91
H       0.74      17.09      57.91
H       0.72      17.33      63.02
H      16.39       2.38      60.34
H       2.74       4.32      60.34
H       3.85       2.22      60.42
H      16.37      14.57      60.55
H       3.83      14.70      60.70
H       2.71      12.61      60.75
H      13.63      16.21      60.52
H      13.58       0.60      60.39
H       3.52      17.10      59.65
H       3.47      17.21      61.43
H       0.62       0.44      65.41
H       0.65      17.32      55.49
H      16.63      12.04      61.14
H      16.67       4.90      60.85
H      17.38       2.59      30.49
H      17.29       3.72      28.41
H      17.09       3.74      23.48
H      17.10       2.63      21.39
H      17.19      16.28      23.35
H      17.28      16.26      28.51
H       2.42       0.61      25.90
H       4.36      14.26      25.76
H       2.25      13.15      25.78
H      14.61       0.64      26.00
H      14.72      13.18      25.92
H      12.63      14.30      25.96
H      16.28       3.39      25.98
H       0.67       3.41      25.91
H      17.16      13.52      24.98
H      17.21      13.49      26.76
H       0.69      16.66      31.06
H       0.27      16.46      20.93
H      12.10       0.40      25.49
H       4.97       0.29      25.27
H       1.17      15.40      16.66
H      16.53       1.59      15.69
H       1.88       0.79      51.24
H      15.46      16.68      50.19
H       2.33       0.33       0.40
H      15.82      16.67       1.65
H      15.11       1.46      35.75
H       1.09      16.30      35.58
H       1.01       9.60       7.71
H      15.44       9.67      10.72
H       7.87       0.66      44.05
H       7.81      15.15      40.99
H      16.31       9.53      61.34
H       1.96       9.68      58.42
H       9.61       0.65      25.06
H       9.60      15.13      28.12
N       0.34      16.47      18.21
N      16.60       1.06      17.66
N      16.90       0.55      19.86
N       0.62      16.96      14.67
N       0.69       0.11      52.76
N      15.96      16.66      52.17
N      16.48      16.84      54.38
N       0.29       0.46      49.21
N       0.89       0.13      68.06
N      16.11      16.93      68.76
N      16.50      17.22      66.53
N       0.94      17.20       2.52
N      15.73       0.85      33.90
N       0.21      16.82      33.80
N      16.65       0.41      31.88
N      16.93       0.44      37.22
N       0.37       7.78       8.45
N      16.12       7.83      10.12
N      16.69       5.83       9.24
N      16.71      11.20       9.12
N       9.68       0.05      43.31
N       9.64      15.83      41.61
N      11.64      16.38      42.51
N       6.27      16.39      42.61
N      16.96       7.73      60.58
N       1.27       7.83      58.96
N       0.68       5.80      59.76
N       0.64      11.17      60.02
N       7.78       0.03      25.75
N       7.78      15.80      27.44
N       5.80      16.35      26.50
N      11.17      16.38      26.54
