13

C       5.28       2.86       6.35
Cu       3.89       3.87       4.09
C       2.99       2.58       6.60
C       2.89       5.26       1.81
N       3.59       5.74       5.00
C       2.60       2.97       1.57
N       2.89       4.02       2.39
C       6.04       2.24       3.04
C       2.27       6.05       5.13
C       6.05       4.35       2.10
C       4.38       6.00       6.08
N       4.04       2.86       5.78
N       5.77       3.57       3.17
