13

C      10.19       9.76       9.74
Cu       8.94       8.88      12.27
C       6.80       8.37      10.29
N       7.05       9.17      11.37
N       9.22       7.01      13.19
C      10.54       6.72      13.34
N       9.91       8.71      10.56
C       8.42       6.75      14.27
N       8.81       9.89      13.96
C       7.57       9.89      14.54
C       9.86      10.17      14.76
C       9.90       7.48       9.99
C       6.75      10.49      11.22
