840

Cu      16.97      27.28       0.00
Cu      18.80      25.40       0.00
Cu      16.97       5.59       0.00
Cu      18.80       7.47       0.00
Cu      16.97       0.00      27.28
Cu      18.80       0.00      25.40
Cu      16.97       0.00       5.59
Cu      18.80       0.00       7.47
Cu       5.65       5.59       0.00
Cu       3.83       7.47       0.00
Cu       5.65      27.28       0.00
Cu       3.83      25.40       0.00
Cu       5.65       0.00      27.28
Cu       3.83       0.00      25.40
Cu       5.65       0.00       5.59
Cu       3.83       0.00       7.47
Cu      11.31      25.32      25.32
Cu      11.31      27.18      27.18
Cu      11.31       7.55       7.55
Cu      11.31       5.69       5.69
Cu      11.31       7.55      25.32
Cu      11.31       5.69      27.18
Cu      11.31      25.32       7.55
Cu      11.31      27.18       5.69
Cu      18.82      21.74      21.74
Cu      17.02      20.40      20.40
Cu      18.82      11.13      11.13
Cu      17.02      12.47      12.47
Cu      18.82      11.13      21.74
Cu      17.02      12.47      20.40
Cu      18.82      21.74      11.13
Cu      17.02      20.40      12.47
Cu       3.80      11.13      21.74
Cu       5.61      12.47      20.40
Cu       3.80      21.74      11.13
Cu       5.61      20.40      12.47
Cu       3.80      21.74      21.74
Cu       5.61      20.40      20.40
Cu       3.80      11.13      11.13
Cu       5.61      12.47      12.47
Cu      11.31      16.43      24.34
Cu      11.31      16.43      26.97
Cu      11.31      16.43       8.52
Cu      11.31      16.43       5.90
Cu      11.31       8.52      16.43
Cu      11.31       5.90      16.43
Cu      11.31      24.34      16.43
Cu      11.31      26.97      16.43
H      14.52      25.86      29.65
H      14.30      22.61      27.20
H      17.07      22.78      30.06
H      14.51      19.16      23.66
H      14.23      19.42      27.67
H      17.09      21.45      25.67
H      15.94      20.45      28.95
H      17.23      21.02      28.27
H      21.29      26.75       3.24
H      21.15      18.47      23.29
H      14.52       7.00       3.22
H      14.30      10.25       5.66
H      17.07      10.09       2.81
H      14.51      13.71       9.21
H      14.23      13.45       5.19
H      17.09      11.42       7.20
H      15.94      12.42       3.92
H      17.23      11.85       4.60
H      21.29       6.12      29.63
H      21.15      14.40       9.58
H      14.52       3.22      25.86
H      14.30       5.66      22.61
H      17.07       2.81      22.78
H      14.51       9.21      19.16
H      14.23       5.19      19.42
H      17.09       7.20      21.45
H      15.94       3.92      20.45
H      17.23       4.60      21.02
H      21.29      29.63      26.75
H      21.15       9.58      18.47
H      14.52      29.65       7.00
H      14.30      27.20      10.25
H      17.07      30.06      10.09
H      14.51      23.66      13.71
H      14.23      27.67      13.45
H      17.09      25.67      11.42
H      15.94      28.95      12.42
H      17.23      28.27      11.85
H      21.29       3.24       6.12
H      21.15      23.29      14.40
H       8.11       7.00      29.65
H       8.32      10.25      27.20
H       5.55      10.09      30.06
H       8.12      13.71      23.66
H       8.39      13.45      27.67
H       5.54      11.42      25.67
H       6.69      12.42      28.95
H       5.40      11.85      28.27
H       1.33       6.12       3.24
H       1.48      14.40      23.29
H       8.11      25.86       3.22
H       8.32      22.61       5.66
H       5.55      22.78       2.81
H       8.12      19.16       9.21
H       8.39      19.42       5.19
H       5.54      21.45       7.20
H       6.69      20.45       3.92
H       5.40      21.02       4.60
H       1.33      26.75      29.63
H       1.48      18.47       9.58
H       8.11      29.65      25.86
H       8.32      27.20      22.61
H       5.55      30.06      22.78
H       8.12      23.66      19.16
H       8.39      27.67      19.42
H       5.54      25.67      21.45
H       6.69      28.95      20.45
H       5.40      28.27      21.02
H       1.33       3.24      26.75
H       1.48      23.29      18.47
H       8.11       3.22       7.00
H       8.32       5.66      10.25
H       5.55       2.81      10.09
H       8.12       9.21      13.71
H       8.39       5.19      13.45
H       5.54       7.20      11.42
H       6.69       3.92      12.42
H       5.40       4.60      11.85
H       1.33      29.63       6.12
H       1.48       9.58      14.40
H       8.11       7.00       3.22
H       8.32      10.25       5.66
H       5.55      10.09       2.81
H       8.12      13.71       9.21
H       8.39      13.45       5.19
H       5.54      11.42       7.20
H       6.69      12.42       3.92
H       5.40      11.85       4.60
H       1.33       6.12      29.63
H       1.48      14.40       9.58
H       8.11      25.86      29.65
H       8.32      22.61      27.20
H       5.55      22.78      30.06
H       8.12      19.16      23.66
H       8.39      19.42      27.67
H       5.54      21.45      25.67
H       6.69      20.45      28.95
H       5.40      21.02      28.27
H       1.33      26.75       3.24
H       1.48      18.47      23.29
H       8.11      29.65       7.00
H       8.32      27.20      10.25
H       5.55      30.06      10.09
H       8.12      23.66      13.71
H       8.39      27.67      13.45
H       5.54      25.67      11.42
H       6.69      28.95      12.42
H       5.40      28.27      11.85
H       1.33       3.24       6.12
H       1.48      23.29      14.40
H       8.11       3.22      25.86
H       8.32       5.66      22.61
H       5.55       2.81      22.78
H       8.12       9.21      19.16
H       8.39       5.19      19.42
H       5.54       7.20      21.45
H       6.69       3.92      20.45
H       5.40       4.60      21.02
H       1.33      29.63      26.75
H       1.48       9.58      18.47
H      14.52      25.86       3.22
H      14.30      22.61       5.66
H      17.07      22.78       2.81
H      14.51      19.16       9.21
H      14.23      19.42       5.19
H      17.09      21.45       7.20
H      15.94      20.45       3.92
H      17.23      21.02       4.60
H      21.29      26.75      29.63
H      21.15      18.47       9.58
H      14.52       7.00      29.65
H      14.30      10.25      27.20
H      17.07      10.09      30.06
H      14.51      13.71      23.66
H      14.23      13.45      27.67
H      17.09      11.42      25.67
H      15.94      12.42      28.95
H      17.23      11.85      28.27
H      21.29       6.12       3.24
H      21.15      14.40      23.29
H      14.52       3.22       7.00
H      14.30       5.66      10.25
H      17.07       2.81      10.09
H      14.51       9.21      13.71
H      14.23       5.19      13.45
H      17.09       7.20      11.42
H      15.94       3.92      12.42
H      17.23       4.60      11.85
H      21.29      29.63       6.12
H      21.15       9.58      14.40
H      14.52      29.65      25.86
H      14.30      27.20      22.61
H      17.07      30.06      22.78
H      14.51      23.66      19.16
H      14.23      27.67      19.42
H      17.09      25.67      21.45
H      15.94      28.95      20.45
H      17.23      28.27      21.02
H      21.29       3.24      26.75
H      21.15      23.29      18.47
H      18.50      29.74       3.13
H      18.50       3.13      29.74
H      18.50      29.74      29.74
H      18.50       3.13       3.13
H       4.13       3.13       3.13
H       4.13      29.74      29.74
H       4.13       3.13      29.74
H       4.13      29.74       3.13
H       0.00      27.56       6.42
H       0.00      17.22      24.77
H       0.00       5.30      26.45
H       0.00      15.65       8.10
H       0.00      26.45      27.56
H       0.00       8.10      17.22
H       0.00       6.42       5.30
H       0.00      24.77      15.65
H       0.00       5.30       6.42
H       0.00      15.65      24.77
H       0.00      27.56      26.45
H       0.00      17.22       8.10
H       0.00       6.42      27.56
H       0.00      24.77      17.22
H       0.00      26.45       5.30
H       0.00       8.10      15.65
H      18.45      16.43      20.91
H      18.45      16.43      11.96
H      18.45      11.96      16.43
H      18.45      20.91      16.43
H       4.17      16.43      20.91
H       4.17      16.43      11.96
H       4.17      20.91      16.43
H       4.17      11.96      16.43
C      15.93      24.42      29.98
C      14.84      25.04      29.36
C      14.24      24.35      28.25
C      14.72      23.07      27.90
C      15.78      22.46      28.53
C      16.37      23.17      29.60
C      15.91      20.31      24.45
C      14.86      19.49      24.46
C      14.29      19.15      25.69
C      14.70      19.63      26.90
C      15.83      20.46      26.94
C      16.39      20.84      25.68
C      16.26      21.03      28.24
C      16.59      25.17      31.10
C      13.14      25.04      27.48
C      16.71      20.64      23.22
C      13.09      18.16      25.68
C      19.07      27.51       1.81
C      19.74      28.12       3.10
C      20.89      27.48       3.65
C      19.07      18.95      21.54
C      19.77      17.64      22.00
C      20.83      17.67      22.94
C      15.93       8.45       2.89
C      14.84       7.83       3.51
C      14.24       8.52       4.62
C      14.72       9.80       4.97
C      15.78      10.41       4.34
C      16.37       9.70       3.27
C      15.91      12.56       8.41
C      14.86      13.37       8.41
C      14.29      13.72       7.18
C      14.70      13.24       5.97
C      15.83      12.41       5.93
C      16.39      12.03       7.18
C      16.26      11.84       4.63
C      16.59       7.70       1.77
C      13.14       7.83       5.39
C      16.71      12.23       9.65
C      13.09      14.71       7.19
C      19.07       5.35      31.05
C      19.74       4.75      29.77
C      20.89       5.38      29.22
C      19.07      13.92      11.33
C      19.77      15.22      10.87
C      20.83      15.20       9.93
C      15.93       2.89      24.42
C      14.84       3.51      25.04
C      14.24       4.62      24.35
C      14.72       4.97      23.07
C      15.78       4.34      22.46
C      16.37       3.27      23.17
C      15.91       8.41      20.31
C      14.86       8.41      19.49
C      14.29       7.18      19.15
C      14.70       5.97      19.63
C      15.83       5.93      20.46
C      16.39       7.18      20.84
C      16.26       4.63      21.03
C      16.59       1.77      25.17
C      13.14       5.39      25.04
C      16.71       9.65      20.64
C      13.09       7.19      18.16
C      19.07      31.05      27.51
C      19.74      29.77      28.12
C      20.89      29.22      27.48
C      19.07      11.33      18.95
C      19.77      10.87      17.64
C      20.83       9.93      17.67
C      15.93      29.98       8.45
C      14.84      29.36       7.83
C      14.24      28.25       8.52
C      14.72      27.90       9.80
C      15.78      28.53      10.41
C      16.37      29.60       9.70
C      15.91      24.45      12.56
C      14.86      24.46      13.37
C      14.29      25.69      13.72
C      14.70      26.90      13.24
C      15.83      26.94      12.41
C      16.39      25.68      12.03
C      16.26      28.24      11.84
C      16.59      31.10       7.70
C      13.14      27.48       7.83
C      16.71      23.22      12.23
C      13.09      25.68      14.71
C      19.07       1.81       5.35
C      19.74       3.10       4.75
C      20.89       3.65       5.38
C      19.07      21.54      13.92
C      19.77      22.00      15.22
C      20.83      22.94      15.20
C       6.70       8.45      29.98
C       7.79       7.83      29.36
C       8.38       8.52      28.25
C       7.91       9.80      27.90
C       6.84      10.41      28.53
C       6.26       9.70      29.60
C       6.72      12.56      24.45
C       7.77      13.37      24.46
C       8.33      13.72      25.69
C       7.93      13.24      26.90
C       6.79      12.41      26.94
C       6.24      12.03      25.68
C       6.37      11.84      28.24
C       6.03       7.70      31.10
C       9.49       7.83      27.48
C       5.92      12.23      23.22
C       9.54      14.71      25.68
C       3.55       5.35       1.81
C       2.89       4.75       3.10
C       1.74       5.38       3.65
C       3.55      13.92      21.54
C       2.85      15.22      22.00
C       1.79      15.20      22.94
C       6.70      24.42       2.89
C       7.79      25.04       3.51
C       8.38      24.35       4.62
C       7.91      23.07       4.97
C       6.84      22.46       4.34
C       6.26      23.17       3.27
C       6.72      20.31       8.41
C       7.77      19.49       8.41
C       8.33      19.15       7.18
C       7.93      19.63       5.97
C       6.79      20.46       5.93
C       6.24      20.84       7.18
C       6.37      21.03       4.63
C       6.03      25.17       1.77
C       9.49      25.04       5.39
C       5.92      20.64       9.65
C       9.54      18.16       7.19
C       3.55      27.51      31.05
C       2.89      28.12      29.77
C       1.74      27.48      29.22
C       3.55      18.95      11.33
C       2.85      17.64      10.87
C       1.79      17.67       9.93
C       6.70      29.98      24.42
C       7.79      29.36      25.04
C       8.38      28.25      24.35
C       7.91      27.90      23.07
C       6.84      28.53      22.46
C       6.26      29.60      23.17
C       6.72      24.45      20.31
C       7.77      24.46      19.49
C       8.33      25.69      19.15
C       7.93      26.90      19.63
C       6.79      26.94      20.46
C       6.24      25.68      20.84
C       6.37      28.24      21.03
C       6.03      31.10      25.17
C       9.49      27.48      25.04
C       5.92      23.22      20.64
C       9.54      25.68      18.16
C       3.55       1.81      27.51
C       2.89       3.10      28.12
C       1.74       3.65      27.48
C       3.55      21.54      18.95
C       2.85      22.00      17.64
C       1.79      22.94      17.67
C       6.70       2.89       8.45
C       7.79       3.51       7.83
C       8.38       4.62       8.52
C       7.91       4.97       9.80
C       6.84       4.34      10.41
C       6.26       3.27       9.70
C       6.72       8.41      12.56
C       7.77       8.41      13.37
C       8.33       7.18      13.72
C       7.93       5.97      13.24
C       6.79       5.93      12.41
C       6.24       7.18      12.03
C       6.37       4.63      11.84
C       6.03       1.77       7.70
C       9.49       5.39       7.83
C       5.92       9.65      12.23
C       9.54       7.19      14.71
C       3.55      31.05       5.35
C       2.89      29.77       4.75
C       1.74      29.22       5.38
C       3.55      11.33      13.92
C       2.85      10.87      15.22
C       1.79       9.93      15.20
C       6.70       8.45       2.89
C       7.79       7.83       3.51
C       8.38       8.52       4.62
C       7.91       9.80       4.97
C       6.84      10.41       4.34
C       6.26       9.70       3.27
C       6.72      12.56       8.41
C       7.77      13.37       8.41
C       8.33      13.72       7.18
C       7.93      13.24       5.97
C       6.79      12.41       5.93
C       6.24      12.03       7.18
C       6.37      11.84       4.63
C       6.03       7.70       1.77
C       9.49       7.83       5.39
C       5.92      12.23       9.65
C       9.54      14.71       7.19
C       3.55       5.35      31.05
C       2.89       4.75      29.77
C       1.74       5.38      29.22
C       3.55      13.92      11.33
C       2.85      15.22      10.87
C       1.79      15.20       9.93
C       6.70      24.42      29.98
C       7.79      25.04      29.36
C       8.38      24.35      28.25
C       7.91      23.07      27.90
C       6.84      22.46      28.53
C       6.26      23.17      29.60
C       6.72      20.31      24.45
C       7.77      19.49      24.46
C       8.33      19.15      25.69
C       7.93      19.63      26.90
C       6.79      20.46      26.94
C       6.24      20.84      25.68
C       6.37      21.03      28.24
C       6.03      25.17      31.10
C       9.49      25.04      27.48
C       5.92      20.64      23.22
C       9.54      18.16      25.68
C       3.55      27.51       1.81
C       2.89      28.12       3.10
C       1.74      27.48       3.65
C       3.55      18.95      21.54
C       2.85      17.64      22.00
C       1.79      17.67      22.94
C       6.70      29.98       8.45
C       7.79      29.36       7.83
C       8.38      28.25       8.52
C       7.91      27.90       9.80
C       6.84      28.53      10.41
C       6.26      29.60       9.70
C       6.72      24.45      12.56
C       7.77      24.46      13.37
C       8.33      25.69      13.72
C       7.93      26.90      13.24
C       6.79      26.94      12.41
C       6.24      25.68      12.03
C       6.37      28.24      11.84
C       6.03      31.10       7.70
C       9.49      27.48       7.83
C       5.92      23.22      12.23
C       9.54      25.68      14.71
C       3.55       1.81       5.35
C       2.89       3.10       4.75
C       1.74       3.65       5.38
C       3.55      21.54      13.92
C       2.85      22.00      15.22
C       1.79      22.94      15.20
C       6.70       2.89      24.42
C       7.79       3.51      25.04
C       8.38       4.62      24.35
C       7.91       4.97      23.07
C       6.84       4.34      22.46
C       6.26       3.27      23.17
C       6.72       8.41      20.31
C       7.77       8.41      19.49
C       8.33       7.18      19.15
C       7.93       5.97      19.63
C       6.79       5.93      20.46
C       6.24       7.18      20.84
C       6.37       4.63      21.03
C       6.03       1.77      25.17
C       9.49       5.39      25.04
C       5.92       9.65      20.64
C       9.54       7.19      18.16
C       3.55      31.05      27.51
C       2.89      29.77      28.12
C       1.74      29.22      27.48
C       3.55      11.33      18.95
C       2.85      10.87      17.64
C       1.79       9.93      17.67
C      15.93      24.42       2.89
C      14.84      25.04       3.51
C      14.24      24.35       4.62
C      14.72      23.07       4.97
C      15.78      22.46       4.34
C      16.37      23.17       3.27
C      15.91      20.31       8.41
C      14.86      19.49       8.41
C      14.29      19.15       7.18
C      14.70      19.63       5.97
C      15.83      20.46       5.93
C      16.39      20.84       7.18
C      16.26      21.03       4.63
C      16.59      25.17       1.77
C      13.14      25.04       5.39
C      16.71      20.64       9.65
C      13.09      18.16       7.19
C      19.07      27.51      31.05
C      19.74      28.12      29.77
C      20.89      27.48      29.22
C      19.07      18.95      11.33
C      19.77      17.64      10.87
C      20.83      17.67       9.93
C      15.93       8.45      29.98
C      14.84       7.83      29.36
C      14.24       8.52      28.25
C      14.72       9.80      27.90
C      15.78      10.41      28.53
C      16.37       9.70      29.60
C      15.91      12.56      24.45
C      14.86      13.37      24.46
C      14.29      13.72      25.69
C      14.70      13.24      26.90
C      15.83      12.41      26.94
C      16.39      12.03      25.68
C      16.26      11.84      28.24
C      16.59       7.70      31.10
C      13.14       7.83      27.48
C      16.71      12.23      23.22
C      13.09      14.71      25.68
C      19.07       5.35       1.81
C      19.74       4.75       3.10
C      20.89       5.38       3.65
C      19.07      13.92      21.54
C      19.77      15.22      22.00
C      20.83      15.20      22.94
C      15.93       2.89       8.45
C      14.84       3.51       7.83
C      14.24       4.62       8.52
C      14.72       4.97       9.80
C      15.78       4.34      10.41
C      16.37       3.27       9.70
C      15.91       8.41      12.56
C      14.86       8.41      13.37
C      14.29       7.18      13.72
C      14.70       5.97      13.24
C      15.83       5.93      12.41
C      16.39       7.18      12.03
C      16.26       4.63      11.84
C      16.59       1.77       7.70
C      13.14       5.39       7.83
C      16.71       9.65      12.23
C      13.09       7.19      14.71
C      19.07      31.05       5.35
C      19.74      29.77       4.75
C      20.89      29.22       5.38
C      19.07      11.33      13.92
C      19.77      10.87      15.22
C      20.83       9.93      15.20
C      15.93      29.98      24.42
C      14.84      29.36      25.04
C      14.24      28.25      24.35
C      14.72      27.90      23.07
C      15.78      28.53      22.46
C      16.37      29.60      23.17
C      15.91      24.45      20.31
C      14.86      24.46      19.49
C      14.29      25.69      19.15
C      14.70      26.90      19.63
C      15.83      26.94      20.46
C      16.39      25.68      20.84
C      16.26      28.24      21.03
C      16.59      31.10      25.17
C      13.14      27.48      25.04
C      16.71      23.22      20.64
C      13.09      25.68      18.16
C      19.07       1.81      27.51
C      19.74       3.10      28.12
C      20.89       3.65      27.48
C      19.07      21.54      18.95
C      19.77      22.00      17.64
C      20.83      22.94      17.67
C      19.19      29.30       3.57
C      21.38      28.03       4.84
C      19.19       3.57      29.30
C      21.38       4.84      28.03
C      19.19      29.30      29.30
C      21.38      28.03      28.03
C      19.19       3.57       3.57
C      21.38       4.84       4.84
C       3.44       3.57       3.57
C       1.24       4.84       4.84
C       3.44      29.30      29.30
C       1.24      28.03      28.03
C       3.44       3.57      29.30
C       1.24       4.84      28.03
C       3.44      29.30       3.57
C       1.24      28.03       4.84
C       0.00      27.41       5.46
C       0.00       5.46      27.41
C       0.00      27.41      27.41
C       0.00       5.46       5.46
C      19.17      16.43      21.50
C      21.40      16.43      23.32
C      19.17      16.43      11.37
C      21.40      16.43       9.54
C      19.17      11.37      16.43
C      21.40       9.54      16.43
C      19.17      21.50      16.43
C      21.40      23.32      16.43
C       3.46      16.43      21.50
C       1.23      16.43      23.32
C       3.46      16.43      11.37
C       1.23      16.43       9.54
C       3.46      21.50      16.43
C       1.23      23.32      16.43
C       3.46      11.37      16.43
C       1.23       9.54      16.43
C       0.00      16.43      24.20
C       0.00      16.43       8.67
C       0.00       8.67      16.43
C       0.00      24.20      16.43
O      16.08      26.21      31.47
O      17.64      24.59      31.49
O      12.72      24.46      26.45
O      12.67      26.09      28.02
O      17.73      21.33      23.30
O      16.17      20.20      22.17
O      12.68      17.78      26.82
O      12.70      17.81      24.53
O      18.09      28.07       1.40
O      19.68      26.45       1.41
O      19.69      19.99      21.98
O      18.13      18.88      20.76
O      16.08       6.66       1.39
O      17.64       8.28       1.38
O      12.72       8.41       6.42
O      12.67       6.78       4.84
O      17.73      11.53       9.56
O      16.17      12.66      10.70
O      12.68      15.09       6.05
O      12.70      15.06       8.34
O      18.09       4.80      31.47
O      19.68       6.42      31.46
O      19.69      12.87      10.89
O      18.13      13.99      12.11
O      16.08       1.39      26.21
O      17.64       1.38      24.59
O      12.72       6.42      24.46
O      12.67       4.84      26.09
O      17.73       9.56      21.33
O      16.17      10.70      20.20
O      12.68       6.05      17.78
O      12.70       8.34      17.81
O      18.09      31.47      28.07
O      19.68      31.46      26.45
O      19.69      10.89      19.99
O      18.13      12.11      18.88
O      16.08      31.47       6.66
O      17.64      31.49       8.28
O      12.72      26.45       8.41
O      12.67      28.02       6.78
O      17.73      23.30      11.53
O      16.17      22.17      12.66
O      12.68      26.82      15.09
O      12.70      24.53      15.06
O      18.09       1.40       4.80
O      19.68       1.41       6.42
O      19.69      21.98      12.87
O      18.13      20.76      13.99
O       6.55       6.66      31.47
O       4.99       8.28      31.49
O       9.91       8.41      26.45
O       9.96       6.78      28.02
O       4.90      11.53      23.30
O       6.46      12.66      22.17
O       9.94      15.09      26.82
O       9.93      15.06      24.53
O       4.53       4.80       1.40
O       2.95       6.42       1.41
O       2.94      12.87      21.98
O       4.49      13.99      20.76
O       6.55      26.21       1.39
O       4.99      24.59       1.38
O       9.91      24.46       6.42
O       9.96      26.09       4.84
O       4.90      21.33       9.56
O       6.46      20.20      10.70
O       9.94      17.78       6.05
O       9.93      17.81       8.34
O       4.53      28.07      31.47
O       2.95      26.45      31.46
O       2.94      19.99      10.89
O       4.49      18.88      12.11
O       6.55      31.47      26.21
O       4.99      31.49      24.59
O       9.91      26.45      24.46
O       9.96      28.02      26.09
O       4.90      23.30      21.33
O       6.46      22.17      20.20
O       9.94      26.82      17.78
O       9.93      24.53      17.81
O       4.53       1.40      28.07
O       2.95       1.41      26.45
O       2.94      21.98      19.99
O       4.49      20.76      18.88
O       6.55       1.39       6.66
O       4.99       1.38       8.28
O       9.91       6.42       8.41
O       9.96       4.84       6.78
O       4.90       9.56      11.53
O       6.46      10.70      12.66
O       9.94       6.05      15.09
O       9.93       8.34      15.06
O       4.53      31.47       4.80
O       2.95      31.46       6.42
O       2.94      10.89      12.87
O       4.49      12.11      13.99
O       6.55       6.66       1.39
O       4.99       8.28       1.38
O       9.91       8.41       6.42
O       9.96       6.78       4.84
O       4.90      11.53       9.56
O       6.46      12.66      10.70
O       9.94      15.09       6.05
O       9.93      15.06       8.34
O       4.53       4.80      31.47
O       2.95       6.42      31.46
O       2.94      12.87      10.89
O       4.49      13.99      12.11
O       6.55      26.21      31.47
O       4.99      24.59      31.49
O       9.91      24.46      26.45
O       9.96      26.09      28.02
O       4.90      21.33      23.30
O       6.46      20.20      22.17
O       9.94      17.78      26.82
O       9.93      17.81      24.53
O       4.53      28.07       1.40
O       2.95      26.45       1.41
O       2.94      19.99      21.98
O       4.49      18.88      20.76
O       6.55      31.47       6.66
O       4.99      31.49       8.28
O       9.91      26.45       8.41
O       9.96      28.02       6.78
O       4.90      23.30      11.53
O       6.46      22.17      12.66
O       9.94      26.82      15.09
O       9.93      24.53      15.06
O       4.53       1.40       4.80
O       2.95       1.41       6.42
O       2.94      21.98      12.87
O       4.49      20.76      13.99
O       6.55       1.39      26.21
O       4.99       1.38      24.59
O       9.91       6.42      24.46
O       9.96       4.84      26.09
O       4.90       9.56      21.33
O       6.46      10.70      20.20
O       9.94       6.05      17.78
O       9.93       8.34      17.81
O       4.53      31.47      28.07
O       2.95      31.46      26.45
O       2.94      10.89      19.99
O       4.49      12.11      18.88
O      16.08      26.21       1.39
O      17.64      24.59       1.38
O      12.72      24.46       6.42
O      12.67      26.09       4.84
O      17.73      21.33       9.56
O      16.17      20.20      10.70
O      12.68      17.78       6.05
O      12.70      17.81       8.34
O      18.09      28.07      31.47
O      19.68      26.45      31.46
O      19.69      19.99      10.89
O      18.13      18.88      12.11
O      16.08       6.66      31.47
O      17.64       8.28      31.49
O      12.72       8.41      26.45
O      12.67       6.78      28.02
O      17.73      11.53      23.30
O      16.17      12.66      22.17
O      12.68      15.09      26.82
O      12.70      15.06      24.53
O      18.09       4.80       1.40
O      19.68       6.42       1.41
O      19.69      12.87      21.98
O      18.13      13.99      20.76
O      16.08       1.39       6.66
O      17.64       1.38       8.28
O      12.72       6.42       8.41
O      12.67       4.84       6.78
O      17.73       9.56      11.53
O      16.17      10.70      12.66
O      12.68       6.05      15.09
O      12.70       8.34      15.06
O      18.09      31.47       4.80
O      19.68      31.46       6.42
O      19.69      10.89      12.87
O      18.13      12.11      13.99
O      16.08      31.47      26.21
O      17.64      31.49      24.59
O      12.72      26.45      24.46
O      12.67      28.02      26.09
O      17.73      23.30      21.33
O      16.17      22.17      20.20
O      12.68      26.82      17.78
O      12.70      24.53      17.81
O      18.09       1.40      28.07
O      19.68       1.41      26.45
O      19.69      21.98      19.99
O      18.13      20.76      18.88
