208

Nd       8.02       3.54       0.24
Nd       2.96       4.59       5.47
Nd       1.12      -2.04       6.92
Nd      -3.69       8.44       1.69
Nd       5.82       9.59       1.99
Nd      -7.00       5.57       6.90
Nd       7.46      -0.93       5.17
Nd       2.12       0.29       0.26
Nd      -3.87       3.64      14.08
Nd       1.19       2.58       8.85
Nd       3.03       9.22       7.40
Nd       7.84      -1.27      12.63
Nd      -1.67      -2.42      12.33
Nd      11.15       1.61       7.42
Nd      -3.31       8.10       9.15
Nd       2.03       6.88      14.06
H       5.59       2.82       3.28
H       8.35       3.43       3.95
H      -6.54       9.84       3.88
H      -7.38      12.53       3.21
H       7.54       6.48       3.73
H       9.08       7.80       1.65
H       3.91      -0.99       3.43
H       4.28       1.00       5.51
H      -1.44       4.35      11.04
H      -4.20       3.74      10.37
H      10.69      -2.67      10.44
H      11.53      -5.36      11.11
H      -3.39       0.69      10.59
H      -4.93      -0.62      12.67
H       0.24       8.16      10.89
H      -0.13       6.17       8.81
C       5.51       3.70       2.99
C       5.76       5.52       1.84
C       4.85       5.75       2.87
C       4.04       6.89       3.32
C       6.34       6.35       0.76
C       8.97       4.05       3.64
C      10.18       5.23       2.30
C      10.51       5.52       3.65
C      -5.10       6.48       4.27
C      10.65       5.62       1.00
C      -5.74      10.20       4.17
C      -4.29      11.33       5.32
C      -3.63      10.65       4.29
C      -2.24      10.52       3.84
C       4.39      -2.09       6.40
C       1.09      -0.96       3.52
C       1.51       0.68       4.86
C       1.59       1.11       3.51
C       1.97       2.39       2.89
C       1.61       1.27       6.16
C       7.65       7.25       4.24
C       7.50       9.29       4.94
C      -8.28       8.55       5.84
C      -7.59       8.84       7.11
C       7.07      10.71       4.85
C       9.23       8.68       1.43
C       8.89      10.77       0.97
C      -6.28      10.45       0.82
C      -5.09      11.26       0.50
C       8.05      11.91       0.75
C       4.52      -0.52       2.92
C       6.37       0.38       2.22
C       5.34       0.67       1.32
C       5.25       1.41       0.05
C       7.81       0.71       2.31
C       4.98       1.58       5.73
C       6.96       2.31       6.19
C       6.00       3.35       6.34
C       6.10       4.78       6.66
C       8.36       2.15       6.41
C      -1.36       3.47      11.33
C      -1.61       1.66      12.48
C      -0.70       1.42      11.45
C       0.11       0.28      11.00
C      -2.19       0.83      13.56
C      -4.82       3.12      10.68
C      -6.04       1.94      12.02
C      -6.37       1.65      10.67
C       9.25       0.69      10.05
C      -6.50       1.56      13.32
C       9.89      -3.03      10.15
C       8.44      -4.16       9.00
C       7.78      -3.48      10.03
C       6.38      -3.35      10.48
C      -0.24       9.27       7.92
C       3.06       8.13      10.80
C       2.64       6.49       9.46
C       2.56       6.06      10.81
C       2.18       4.78      11.43
C       2.54       5.90       8.16
C      -3.50      -0.08      10.08
C      -3.35      -2.12       9.38
C      12.42      -1.38       8.48
C      11.74      -1.67       7.21
C      -2.93      -3.54       9.47
C      -5.08      -1.51      12.89
C      -4.74      -3.60      13.35
C      10.43      -3.28      13.50
C       9.24      -4.09      13.82
C      -3.90      -4.74      13.57
C      -0.37       7.69      11.40
C      -2.22       6.79      12.10
C      -1.19       6.50      13.00
C      -1.10       5.76      14.27
C      -3.66       6.46      12.01
C      -0.83       5.60       8.59
C      -2.81       4.86       8.13
C      -1.85       3.82       7.98
C      -1.95       2.39       7.66
C      -4.21       5.02       7.91
N       4.72       4.59       3.57
N       6.17       4.19       1.94
N       9.15       4.28       2.34
N       9.73       4.76       4.47
N      -4.57       9.97       3.59
N      -5.64      11.03       5.22
N       1.20      -0.69       4.82
N       1.32       0.05       2.70
N       8.34       7.28       5.38
N       7.12       8.43       3.92
N       8.25       9.59       1.38
N      10.44       9.13       1.12
N       4.21       0.10       1.78
N       5.81      -0.38       3.24
N       6.25       1.18       5.78
N       4.76       2.84       6.04
N      -0.57       2.58      10.75
N      -2.02       2.98      12.38
N      -5.00       2.89      11.98
N      -5.58       2.42       9.86
N       8.72      -2.79      10.73
N       9.79      -3.85       9.10
N       2.95       7.86       9.50
N       2.83       7.13      11.63
N      -4.19      -0.11       8.94
N      -2.97      -1.26      10.40
N      -4.10      -2.42      12.94
N      -6.29      -1.96      13.20
N      -0.06       7.07      12.54
N      -1.66       7.55      11.08
N      -2.10       6.00       8.54
N      -0.61       4.33       8.28
O       3.14       6.64       4.18
O       4.20       8.05       2.85
O       6.17       7.59       0.76
O       2.95      -1.42      14.30
O      -5.23       6.60       5.54
O      -4.24       7.09       3.57
O      11.69       6.37       0.83
O       5.90      -2.00      14.30
O      -2.01       9.62       2.98
O      -1.32      11.24       4.31
O       5.55      -1.62       6.40
O       3.49      -1.73       7.18
O       2.13       2.34       1.62
O       2.06       3.45       3.59
O       1.74       2.55       6.33
O       1.52       0.53       7.18
O      -7.18       7.83       7.77
O      -7.46      10.01       7.55
O      -0.72      -2.78       5.62
O       6.33      10.98       3.89
O      -3.98      10.66       0.67
O      -5.22      12.44       0.05
O       8.49      13.00       0.23
O       6.82      11.83       1.05
O       0.02      -5.91      13.71
O       2.05      -5.06      13.93
O       8.30       1.57       1.54
O       8.42       0.20       3.27
O       5.02       5.45       6.49
O       7.19       5.26       7.11
O       9.09       3.08       6.93
O       8.90       1.05       6.11
O       1.01       0.53      10.14
O      -0.06      -0.88      11.47
O      -2.02      -0.42      13.56
O       1.20       8.59       0.02
O       9.38       0.57       8.78
O       8.38       0.09      10.75
O      -7.54       0.81      13.49
O      -1.75       9.17       0.02
O       6.16      -2.45      11.34
O       5.47      -4.07      10.01
O      -1.41       8.79       7.92
O       0.66       8.91       7.14
O       2.02       4.83      12.70
O       2.09       3.73      10.73
O       2.41       4.62       7.99
O       2.63       6.64       7.14
O      11.33      -0.66       6.55
O      11.61      -2.84       6.77
O       4.87       9.95       8.70
O      -2.18      -3.81      10.43
O       8.12      -3.49      13.65
O       9.37      -5.27      14.27
O      -4.34      -5.83      14.09
O      -2.67      -4.66      13.27
O       4.13      13.08       0.61
O       2.10      12.23       0.39
O      -4.15       5.60      12.78
O      -4.27       6.97      11.05
O      -0.87       1.72       7.83
O      -3.04       1.91       7.21
O      -4.94       4.09       7.39
O      -4.75       6.12       8.21
