16

C       8.33       7.23      38.24
C       7.41       5.41      37.15
N       7.31       6.95      43.07
N       4.06       6.89      42.98
C       3.05       5.33      38.43
Cu       5.72       6.77      41.84
Cu       5.68       6.42      39.32
C       3.94       6.92      37.02
I       5.71       8.95      40.29
I       5.76       4.25      40.93
N       7.31       6.36      38.11
N       4.05       6.19      38.15
C       7.46       6.13      44.14
C       8.29       7.86      42.85
C       2.98       6.13      42.74
C       4.00       7.74      44.03
