140

Cu      -0.07      -2.67      18.53
Cu       9.81      -1.33       9.29
Si       4.32      -0.63       4.67
Si       5.62      -1.94      13.77
H       2.30       3.01      11.11
H       1.71       1.10       9.82
H       7.61       4.33       1.88
H       8.18       2.40       0.63
H       0.75       4.69       7.45
H       3.69       7.09       0.77
H       7.59       1.09       8.62
H      -1.38       3.71       8.57
H       6.21       5.73      10.18
H      -3.13       6.91      18.04
H       2.87       9.74       0.81
H      -2.66       4.97      16.72
H      -2.78       8.33      10.07
H       3.20       8.25       8.58
H       1.25       2.27      17.74
H       2.57       6.37       7.45
H      -0.86       3.26      16.72
H       5.82       6.04       1.88
H       2.15      -0.35      17.76
H       4.13       4.69      11.11
W       6.80       0.19       2.40
W      -1.29       7.78      13.08
W      -0.55       8.13       6.29
W      -3.26      10.29       7.01
W       1.91      10.45       6.84
W      -1.87       9.20      16.00
W       1.61       0.13       2.11
W       3.24       7.86      13.34
W       6.70       1.83       5.44
W       4.32       2.29       3.00
W       8.24      -1.44      11.34
W       3.07       0.49      14.41
W       3.29       9.42      16.50
W       1.78       8.85       3.88
W       5.57      -0.24      16.63
W       1.83       1.36       5.33
W       4.06       0.76       7.71
W      -0.76       9.78       1.50
W       0.79       6.95      15.74
W       8.18       0.35      14.57
W       5.71       0.91      12.17
W      -3.13       9.36       4.18
W       0.62       8.21      11.01
W       3.18      -1.08      11.33
C       3.83       9.32       0.55
C       3.40       4.67      10.30
C       0.73       1.43       9.51
C      -1.42       5.05       0.04
C      -0.77       2.73       0.29
C       4.16       7.93       8.95
C      -0.89       2.78       8.81
C      -2.59       4.25      17.53
C       2.50       5.65       8.26
C       6.53       6.00       1.05
C       2.37       3.74      10.31
C       0.75       1.35      18.02
C       3.46       5.63       9.28
C       4.23       8.00       0.54
C       7.55       5.05       1.07
C       6.48       6.94       0.02
C       1.19       0.05      18.04
C       5.80       6.61      18.35
C       1.47       4.71       8.27
C       1.40       3.77       9.29
C      -3.75       7.93       9.79
C       5.73       6.64       9.85
C       8.58       1.48       8.83
C      -1.57       3.31      17.54
N       0.26       1.93       0.00
N       4.44       6.65       9.31
N       5.54       8.00       0.06
N       5.18       8.73       9.23
N       0.43       2.73       9.25
N      -0.31       0.65       9.26
N       4.88      10.10       0.10
N      -0.55       1.33      18.54
O       3.57       0.29       5.81
O       5.13       0.51       3.84
O       5.54       1.88       6.88
O       0.79       7.69       4.92
O       1.00      -0.12       6.20
O       4.19       0.40      10.70
O       2.53      -1.13      15.16
O       7.02       0.00      11.13
O      -2.10       9.29      12.35
O      -4.00      10.66       3.02
O       5.40      -0.55       7.77
O       0.36      10.29       5.33
O       2.03       9.36      13.23
O       2.36      -0.10      12.71
O      -1.66      10.69       3.71
O       4.00       8.46      14.97
O       7.25       0.09       6.05
O       2.15       9.48      10.53
O       5.71       1.81       1.84
O      -2.07       8.73       2.09
O      -0.49       9.61      10.47
O       8.08       0.27       1.26
O       2.72       9.38       5.55
O      -3.14       9.08      17.16
O       7.57       1.24       3.77
O       5.66       9.21       5.58
O       4.15       9.03      12.14
O       2.85       1.60       2.02
O      -2.07       8.84       7.28
O       0.93       1.20       3.78
O       1.81      -1.18      10.29
O       6.20      -1.07      14.98
O       7.00       1.46      13.34
O      -1.80       8.18       4.85
O      -0.90       7.01      11.44
O       4.28       1.48      13.40
O       4.32      -1.67      16.88
O      -0.37       9.07      14.36
O       0.55      11.19       1.48
O       4.14       0.83      16.06
O       2.73       1.95       7.31
O       8.88      -1.04      15.64
O       6.99      -1.50      17.32
O       0.81       8.83       7.36
O       7.03       0.88      16.04
O       2.32      10.57       3.24
O       2.11       7.94      16.71
O       0.63       8.79       2.40
O      -2.10      11.16       1.15
O       3.13       2.49       4.45
O       1.98       7.27      11.87
O      -0.69       7.72      16.59
O      -0.41       6.56      14.20
O       2.12       6.72      14.44
O       2.79      -0.66       7.96
O       5.71       2.92       4.37
O      -2.55       8.09      14.66
O       8.77      -0.46      12.93
O       3.11      10.41       8.08
O       4.96      -0.95      12.67
