11

H       2.92       6.10       5.56
N       2.02       5.78       5.16
N       0.77       7.80       5.48
N      -0.33       5.86       5.69
H       1.93       4.76       5.21
N      -0.53       8.07       5.79
C       0.88       6.45       5.44
C      -1.17       6.91       5.90
C      -2.62       6.96       6.20
O      -3.07       8.18       6.37
O      -3.31       5.93       6.22
