16

C       4.11      10.72      16.86
O       6.04       9.44      18.92
C       3.35      11.83      16.16
C       0.96      13.33      19.78
O       3.52      10.32      18.05
Zn       4.41      10.01      19.83
Zn       1.90      11.28      18.61
C       1.46      13.23      16.22
N       4.73       8.25      20.93
N       2.21      12.23      16.76
O       4.59      11.53      21.26
O       2.06      12.74      20.06
C       6.62       8.27      19.41
C       5.87       7.64      20.58
C       3.46      11.24      21.80
C       3.98       7.79      21.97
