16

Zn       4.41      15.47      11.24
Zn       6.88      14.20      10.03
O       4.59      13.94      12.68
C       3.46      14.23      13.21
N       4.73      17.22      12.35
N       7.19      13.25       8.17
C       6.62      17.21      10.82
C       5.87      17.83      11.99
C       5.94      12.15      11.19
O       6.04      16.04      10.34
O       3.52      15.15       9.47
C       3.98      17.68      13.38
C       4.11      14.75       8.28
C       3.35      13.64       7.58
C       6.44      12.25       7.63
O       7.04      12.74      11.47
