10

Ag      12.79       9.33      19.32
C      13.63      11.39      16.74
C      10.87       9.67      21.74
N      11.09      10.11      20.48
N      14.12       7.73      18.76
N      13.21      11.36      18.02
C      13.23      12.53      18.70
C      10.28      11.10      20.01
C      14.56       6.86      19.71
C      14.80       7.74      17.58
