10

C      12.04      11.40      13.29
C      12.41      12.57      11.34
Ag      12.89       9.37      10.67
N      14.59      10.15       9.52
N      12.44      11.39      12.00
N      11.57       7.75      11.23
C      15.41      11.14       9.99
C      14.81       9.71       8.26
C      11.13       6.88      10.27
C      10.88       7.76      12.41
