747

C      26.89       0.94      20.24
C      22.11       4.69      14.11
C      23.72      -4.23      13.24
C      21.59       4.90      12.82
C      21.53       7.33      13.21
C      22.04       7.10      14.51
C      22.33       5.80      14.96
C      26.44       1.96      21.10
C      27.24       2.40      22.17
C      28.52       1.83      22.38
C      28.95       0.78      21.54
C      28.15       0.35      20.47
C      24.12      -5.48      13.76
C      24.02      -6.64      12.96
C       7.30      34.83      11.63
C      23.15      -5.30      11.13
C      23.24      -4.15      11.92
C      23.96      -1.01      15.25
C      24.70      -0.92      16.45
C      24.81       0.31      17.13
C      24.17       1.46      16.61
C      23.43       1.38      15.41
C      23.33       0.15      14.73
C      23.81      -3.15      13.97
C      23.88      -2.13      14.60
C      22.48       3.51      14.50
C      22.89       2.46      14.91
C      25.52       0.42      18.22
C      26.18       0.62      19.20
C       7.21      33.71      10.81
C     -15.11       2.30      23.39
C      21.37       8.63      12.75
C      21.30       6.21      12.37
C     -10.58      22.23      13.56
C      -6.15      18.68      20.06
C      -1.40      23.28      13.78
C      -5.04      18.08      20.70
C      -6.56      16.73      22.09
C      -7.66      17.35      21.44
C      -7.45      18.32      20.44
C     -11.69      22.27      14.44
C     -13.00      22.18      13.93
C     -13.23      22.03      12.55
C     -12.12      22.02      11.67
C     -10.81      22.11      12.17
C      -1.31      24.19      12.71
C      -0.06      24.56      12.18
C       1.14      24.02      12.71
C       1.04      23.09      13.79
C      -0.21      22.73      14.31
C      -4.72      22.16      15.26
C      -5.95      22.41      14.60
C      -7.15      21.93      15.16
C      -7.13      21.19      16.36
C      -5.90      20.94      17.02
C      -4.70      21.42      16.46
C      -2.56      22.93      14.26
C      -3.60      22.57      14.73
C      -5.97      19.50      19.06
C      -5.89      20.21      18.10
C      -8.29      22.11      14.55
C      -9.37      22.21      14.05
C       2.40      24.34      12.21
C     -14.51      21.86      12.04
C      -6.80      15.70      22.98
C      -5.25      17.11      21.71
C      19.95      13.18      11.06
C      25.20      20.03      11.18
C      16.31      21.62      10.01
C      25.58      21.36      11.42
C      27.86      20.63      11.97
C      27.47      19.30      11.72
C      26.15      19.00      11.33
C      21.06      12.43      10.62
C      21.16      11.06      10.93
C      20.16      10.42      11.71
C      19.03      11.17      12.12
C      18.93      12.54      11.81
C      15.00      21.20       9.69
C      13.95      22.14       9.61
C      14.19      23.52       9.84
C      15.51      23.92      10.16
C      16.55      22.99      10.25
C      19.22      19.20      10.33
C      19.03      17.80      10.41
C      20.13      16.94      10.58
C      21.43      17.48      10.67
C      21.63      18.88      10.59
C      20.52      19.73      10.42
C      17.28      20.75      10.10
C      18.20      20.00      10.20
C      23.96      19.72      10.91
C      22.84      19.36      10.73
C      19.97      15.65      10.70
C      19.91      14.46      10.85
C      13.17      24.47       9.78
C      20.29       9.09      12.09
C     -15.34      20.88      12.48
C      26.90      21.66      11.81
C      -7.30      12.47      26.85
C     -12.23       5.40      26.36
C      -9.70       8.15      34.67
C     -13.19       4.46      26.77
C     -13.89       4.12      24.44
C     -12.91       5.06      24.03
C     -12.09       5.69      24.98
C      -6.86      12.16      25.54
C      -6.47      13.18      24.66
C      -6.52      14.54      25.06
C      -6.92      14.84      26.38
C      -7.32      13.82      27.27
C      -8.88       8.90      35.54
C       7.31      27.96       0.20
C       6.36      27.07       0.76
C     -10.76       7.11      36.61
C     -10.64       7.25      35.22
C      -9.52       8.46      30.89
C      -8.83       9.52      30.25
C      -8.84       9.63      28.84
C      -9.53       8.68      28.07
C     -10.22       7.61      28.70
C     -10.21       7.51      30.10
C      -9.59       8.28      33.38
C      -9.54       8.37      32.19
C     -11.53       6.07      27.23
C     -10.89       6.77      27.97
C      -8.25      10.63      28.25
C      -7.76      11.52      27.62
C       6.20      26.91       2.14
C      -6.20      15.56      24.18
C     -14.76       3.60      23.49
C     -14.02       3.82      25.82
C       7.06      27.32       4.32
C       7.78      28.32       5.01
C       7.84      28.33       6.41
C       7.14      27.37       7.20
C       6.51      26.31       6.49
C       6.46      26.29       5.08
C       7.24      27.36       8.73
C       8.52      26.54       8.91
C       8.51      25.12       8.93
C       9.68      24.36       9.06
C      10.94      25.00       9.14
C      10.99      26.40       9.01
C       9.80      27.15       8.88
C       7.28      28.75       9.36
C       6.02      26.77       9.43
C       6.12      26.14      10.70
C       5.00      25.63      11.37
C       3.70      25.78      10.82
C       3.57      26.50       9.62
C       4.70      27.00       8.95
C       6.53      29.83       8.84
C       6.53      31.10       9.44
C       7.27      31.33      10.63
C       7.94      30.24      11.22
C       7.93      28.97      10.61
C      21.45       4.65      26.38
C      16.68       8.40      20.25
C      18.28      -0.52      19.38
C      16.15       8.61      18.95
C      16.09      11.03      19.35
C      16.60      10.81      20.64
C      16.89       9.51      21.09
C      21.00       5.67      27.24
C      21.81       6.11      28.31
C      23.09       5.54      28.52
C      23.52       4.49      27.68
C      22.71       4.05      26.61
C      18.68      -1.77      19.90
C      18.58      -2.93      19.10
C      18.10      -2.86      17.77
C      17.71      -1.60      17.26
C      17.80      -0.44      18.06
C      18.52       2.70      21.38
C      19.26       2.79      22.59
C      19.37       4.02      23.27
C      18.73       5.17      22.74
C      17.99       5.09      21.54
C      17.89       3.86      20.87
C      18.37       0.56      20.11
C      18.45       1.57      20.74
C      17.04       7.21      20.64
C      17.45       6.17      21.05
C      20.08       4.13      24.35
C      20.74       4.32      25.33
C      18.01      -3.98      16.94
C     -20.55       6.01      29.52
C      15.93      12.34      18.89
C      15.86       9.92      18.51
C     -16.02      25.93      19.70
C     -11.58      22.39      26.20
C      -6.84      26.99      19.92
C     -10.48      21.78      26.84
C     -12.00      20.44      28.23
C     -13.10      21.06      27.58
C     -12.89      22.02      26.58
C     -17.13      25.98      20.58
C     -18.44      25.89      20.07
C     -18.67      25.74      18.68
C     -17.56      25.73      17.81
C     -16.24      25.82      18.31
C      -6.75      27.90      18.85
C      -5.49      28.27      18.32
C      -4.30      27.72      18.85
C      -4.40      26.80      19.92
C      -5.65      26.44      20.45
C     -10.16      25.87      21.39
C     -11.39      26.12      20.74
C     -12.59      25.63      21.30
C     -12.57      24.90      22.50
C     -11.34      24.64      23.16
C     -10.14      25.13      22.60
C      -7.99      26.63      20.40
C      -9.04      26.28      20.87
C     -11.41      23.21      25.20
C     -11.33      23.92      24.24
C     -13.73      25.82      20.69
C     -14.81      25.92      20.18
C      -3.04      28.05      18.35
C     -19.95      25.56      18.18
C     -12.24      19.41      29.12
C     -10.69      20.82      27.85
C      14.51      16.89      17.20
C      19.76      23.74      17.32
C      10.87      25.33      16.15
C      20.15      25.07      17.56
C      22.43      24.34      18.11
C      22.03      23.01      17.86
C      20.72      22.70      17.47
C      15.62      16.14      16.76
C      15.72      14.77      17.07
C      14.72      14.13      17.85
C      13.60      14.88      18.26
C      13.49      16.25      17.94
C       9.56      24.91      15.83
C       8.51      25.85      15.74
C       8.75      27.22      15.98
C      10.07      27.63      16.30
C      11.12      26.69      16.38
C      13.78      22.90      16.46
C      13.59      21.51      16.55
C      14.69      20.65      16.72
C      16.00      21.19      16.81
C      16.20      22.58      16.73
C      15.09      23.44      16.56
C      11.84      24.46      16.24
C      12.76      23.70      16.34
C      18.52      23.43      17.05
C      17.40      23.07      16.87
C      14.53      19.36      16.84
C      14.47      18.17      16.99
C       7.73      28.18      15.92
C      14.85      12.80      18.23
C     -20.77      24.59      18.61
C      21.47      25.37      17.95
C     -12.74      16.18      32.98
C     -17.67       9.11      32.49
C       1.18      31.06       4.08
C     -18.63       8.17      32.91
C     -19.32       7.82      30.58
C     -18.35       8.77      30.17
C     -17.52       9.40      31.12
C     -12.30      15.86      31.68
C     -11.91      16.89      30.80
C     -11.95      18.24      31.20
C     -12.36      18.55      32.52
C     -12.76      17.52      33.40
C       2.00      31.81       4.94
C       1.87      31.67       6.34
C       0.93      30.78       6.90
C       0.11      30.03       6.02
C       0.23      30.17       4.62
C       1.36      31.38       0.29
C     -14.27      13.23      36.39
C     -14.28      13.34      34.98
C     -14.97      12.38      34.21
C     -15.66      11.32      34.83
C     -15.65      11.21      36.24
C       1.28      31.19       2.78
C       1.33      31.29       1.59
C     -16.96       9.78      33.37
C     -16.33      10.48      34.10
C     -13.68      14.34      34.39
C     -13.20      15.23      33.76
C       0.77      30.62       8.28
C     -11.64      19.27      30.32
C     -20.20       7.31      29.63
C     -19.45       7.53      31.95
C       1.63      31.03      10.46
C       2.35      32.02      11.15
C       2.40      32.04      12.55
C       1.70      31.08      13.34
C       1.08      30.02      12.63
C       1.02      30.00      11.22
C       1.80      31.06      14.86
C       3.08      30.25      15.05
C       3.07      28.83      15.07
C       4.25      28.07      15.20
C       5.50      28.71      15.28
C       5.55      30.11      15.15
C       4.37      30.86      15.02
C       1.85      32.45      15.50
C       0.58      30.48      15.57
C       0.68      29.84      16.84
C      -0.44      29.34      17.51
C      -1.73      29.49      16.96
C      -1.87      30.21      15.76
C      -0.74      30.71      15.09
C       1.09      33.54      14.98
C      17.33      -6.59      15.58
C      18.06      -6.36      16.77
C      18.73      -7.45      17.36
C      18.72      -8.72      16.75
C      16.01       8.36      32.52
C      11.24      12.11      26.39
C      12.85       3.19      25.52
C      10.71      12.32      25.09
C      10.65      14.74      25.48
C      11.17      14.52      26.78
C      11.45      13.22      27.23
C      15.56       9.38      33.38
C      16.37       9.81      34.45
C      17.65       9.25      34.66
C      18.08       8.20      33.81
C      17.27       7.76      32.74
C      13.24       1.94      26.03
C      13.15       0.78      25.24
C      12.66       0.85      23.91
C      12.27       2.11      23.40
C      12.36       3.27      24.20
C      13.08       6.41      27.52
C      13.82       6.50      28.72
C      13.93       7.73      29.41
C      13.30       8.88      28.88
C      12.55       8.80      27.68
C      12.45       7.56      27.00
C      12.94       4.27      26.24
C      13.01       5.28      26.87
C      11.60      10.92      26.78
C      12.02       9.88      27.19
C      14.64       7.83      30.49
C      15.30       8.03      31.47
C      12.57      -0.28      23.08
C     -25.98       9.72      35.66
C      10.49      16.05      25.03
C      10.43      13.62      24.65
C      -5.23     -11.76      25.84
C      -0.79     -15.30      32.34
C       3.96     -10.70      26.05
C       0.31     -15.91      32.98
C      -1.21     -17.25      34.36
C      -2.31     -16.63      33.72
C      -2.10     -15.67      32.72
C      -6.33     -11.71      26.72
C      -7.64     -11.80      26.21
C      -7.87     -11.95      24.82
C      -6.76     -11.96      23.95
C      -5.45     -11.87      24.45
C       4.04      -9.79      24.98
C       5.30      -9.42      24.46
C       6.50      -9.97      24.99
C       6.39     -10.89      26.06
C       5.14     -11.25      26.59
C       0.64     -11.82      27.53
C      -0.59     -11.57      26.88
C      -1.80     -12.06      27.43
C      -1.77     -12.79      28.64
C      -0.55     -13.05      29.30
C       0.66     -12.56      28.74
C       2.80     -11.06      26.54
C       1.76     -11.41      27.01
C      -0.62     -14.48      31.34
C      -0.54     -13.77      30.38
C      -2.94     -11.87      26.82
C      -4.02     -11.77      26.32
C       7.75      -9.64      24.49
C      -9.16     -12.13      24.32
C      -1.45     -18.28      35.26
C       0.10     -16.87      33.98
C       9.07      20.59      23.34
C      14.32      27.44      23.46
C       5.43      29.03      22.29
C      14.71      28.78      23.70
C      16.99      28.05      24.25
C      16.59      26.72      24.00
C      15.28      26.41      23.61
C      10.18      19.84      22.90
C      10.28      18.48      23.21
C       9.29      17.84      23.99
C       8.16      18.59      24.40
C       8.05      19.95      24.08
C       4.12      28.61      21.97
C       3.08      29.55      21.88
C      19.54     -10.47      22.12
C      20.86     -10.06      22.44
C      21.91     -11.00      22.52
C       8.34      26.61      22.60
C       8.15      25.21      22.69
C       9.26      24.35      22.86
C      10.56      24.90      22.95
C      10.76      26.29      22.87
C       9.65      27.15      22.70
C       6.40      28.17      22.38
C       7.32      27.41      22.47
C      13.08      27.14      23.19
C      11.96      26.78      23.01
C       9.09      23.06      22.98
C       9.03      21.88      23.13
C      18.53      -9.51      22.06
C       9.42      16.51      24.37
C     -26.21      28.30      24.75
C      32.26     -12.32      24.09
C      -1.87      39.09       2.39
C      -6.79      32.03       1.90
C      -4.26      34.77      10.21
C      -7.76      31.09       2.31
C     -24.76      11.53      36.71
C     -23.78      12.47      36.31
C      -6.65      32.32       0.53
C      -1.43      38.78       1.08
C      -1.03      39.81       0.21
C      15.15      -0.24       0.61
C      14.74       0.07       1.93
C      14.34      -0.96       2.81
C      -3.44      35.52      11.08
C      12.66      -6.02      12.48
C      -4.51      34.48      13.04
C      -5.33      33.74      12.15
C      -5.21      33.88      10.76
C      -4.08      35.08       6.43
C      -3.40      36.15       5.80
C      -3.40      36.26       4.39
C      -4.10      35.30       3.61
C      -4.78      34.24       4.24
C      -4.77      34.13       5.65
C      -4.16      34.90       8.92
C      -4.10      35.00       7.73
C      -6.09      32.70       2.77
C      -5.46      33.39       3.51
C      -2.81      37.25       3.79
C      -2.33      38.15       3.16
C      11.56      -7.07      14.41
C      -0.85     -18.42      36.46
C     -25.64      11.02      35.77
C      -8.58      30.45       1.36
C      12.42      -6.66      16.60
C      13.14      -5.67      17.29
C      13.19      -5.65      18.69
C      12.50      -6.61      19.48
C      11.87      -7.67      18.76
C      11.81      -7.69      17.36
C      12.60      -6.63      21.00
C      13.88      -7.44      21.19
C      13.86      -8.86      21.20
C      15.04      -9.62      21.33
C      16.29      -8.98      21.42
C      16.34      -7.58      21.29
C      15.16      -6.83      21.16
C      12.64      -5.24      21.64
C      11.37      -7.21      21.71
C      11.48      -7.85      22.98
C      10.35      -8.35      23.65
C       9.06      -8.20      23.10
C       8.92      -7.48      21.90
C      10.05      -6.98      21.23
C      11.88      -4.15      21.12
C      11.89      -2.88      21.72
C      12.62      -2.65      22.91
C      13.29      -3.74      23.50
C      13.28      -5.01      22.89
H      22.24       7.89      15.13
H      22.73       5.68      15.89
H      20.97       6.34      11.41
H      28.50      -0.39      19.85
H      25.53       2.42      20.95
H      26.90       3.15      22.77
H      29.88       0.36      21.66
H      24.48      -5.57      14.71
H      22.79      -5.21      10.17
H      22.95      -3.25      11.52
H       8.09      33.87      13.36
H      24.26       2.36      17.09
H      25.17      -1.75      16.82
H      22.80       0.09      13.85
H      21.45       4.12      12.17
H      22.10       9.27      12.97
H     -14.71       1.64      24.01
H       7.07      33.84       9.83
H      -8.62      17.08      21.67
H      -8.27      18.72      19.97
H      -4.44      16.65      22.13
H     -10.02      22.06      11.52
H     -11.55      22.34      15.45
H     -13.78      22.19      14.59
H     -12.25      21.91      10.66
H      -2.16      24.60      12.30
H       1.88      22.68      14.20
H      -0.25      22.06      15.09
H      -0.03      25.22      11.40
H      -8.00      20.82      16.76
H      -5.96      22.93      13.72
H      -3.81      21.22      16.93
H      -4.08      18.30      20.43
H      -7.50      15.03      22.73
H     -14.80      22.44      11.29
H       3.18      23.78      12.47
H      28.13      18.53      11.85
H      25.90      18.01      11.19
H      27.15      22.64      12.02
H      18.12      13.06      12.15
H      21.81      12.87      10.09
H      21.99      10.55      10.62
H      18.30      10.74      12.69
H      14.79      20.21       9.52
H      15.72      24.91      10.34
H      17.49      23.32      10.48
H      13.01      21.80       9.38
H      22.24      16.86      10.82
H      18.08      17.41      10.36
H      20.67      20.75      10.38
H      24.90      22.13      11.35
H     -15.01      20.27      13.19
H      19.53       8.48      11.92
H      13.35      25.37      10.17
H     -12.80       5.31      23.05
H     -11.41       6.39      24.66
H     -14.74       3.18      26.15
H      -7.65      14.07      28.20
H      -6.85      11.19      25.21
H      -6.17      12.93      23.71
H      -6.97      15.81      26.70
H      -8.19       9.56      35.17
H       4.85      25.66       0.24
H     -11.25       6.69      34.61
H       7.91      28.53       0.80
H      -9.55       8.76      27.05
H      -8.34      10.23      30.82
H     -10.72       6.74      30.56
H     -13.34       4.25      27.76
H     -15.12       4.24      22.82
H      -5.55      16.25      24.48
H       5.39      26.44       2.47
H       5.13      25.17      12.28
H       7.03      26.03      11.15
H       2.64      26.66       9.22
H       4.54      27.53       8.10
H       5.96      29.71       8.00
H       5.98      31.85       9.02
H       8.44      30.36      12.11
H       8.41      28.21      11.09
H       9.89      28.16       8.77
H      11.88      26.89       9.00
H       9.62      23.34       9.10
H       7.62      24.61       8.86
H       6.08      25.53       6.99
H       8.39      29.06       6.86
H       8.28      29.05       4.49
H       5.98      25.52       4.62
H      16.80      11.60      21.27
H      17.29       9.39      22.03
H      15.53      10.04      17.55
H      23.06       3.32      25.98
H      20.09       6.13      27.09
H      21.47       6.86      28.91
H      24.44       4.07      27.80
H      19.04      -1.86      20.85
H      17.35      -1.50      16.31
H      17.51       0.46      17.66
H      18.89      -3.82      19.50
H      18.82       6.07      23.23
H      19.74       1.96      22.96
H      17.36       3.80      19.98
H      16.01       7.83      18.31
H      16.66      12.98      19.11
H     -20.14       5.35      30.15
H      17.86      -3.85      15.97
H     -14.06      20.79      27.81
H     -13.71      22.43      26.11
H      -9.88      20.36      28.27
H     -15.46      25.77      17.65
H     -16.99      26.04      21.59
H     -19.22      25.90      20.73
H     -17.69      25.62      16.80
H      -7.60      28.31      18.44
H      -3.56      26.38      20.34
H      -5.69      25.77      21.23
H      -5.47      28.93      17.54
H     -13.44      24.53      22.90
H     -11.40      26.64      19.86
H      -9.24      24.93      23.07
H      -9.52      22.01      26.56
H     -12.94      18.74      28.86
H     -20.24      26.15      17.43
H      -2.26      27.48      18.61
H      22.69      22.24      17.99
H      20.46      21.72      17.32
H      21.71      26.34      18.16
H      12.68      16.77      18.29
H      16.38      16.58      16.23
H      16.55      14.25      16.76
H      12.86      14.44      18.82
H       9.35      23.92      15.66
H      10.28      28.61      16.48
H      12.06      27.03      16.62
H       7.57      25.51      15.52
H      16.80      20.56      16.96
H      12.64      21.12      16.50
H      15.23      24.46      16.52
H      19.47      25.84      17.49
H     -20.45      23.97      19.32
H      14.09      12.19      18.06
H       7.91      29.08      16.30
H     -18.24       9.02      29.19
H     -16.85      10.10      30.79
H     -20.18       6.89      32.28
H     -13.09      17.78      34.34
H     -12.29      14.90      31.34
H     -11.61      16.64      29.85
H     -12.41      19.52      32.84
H       2.69      32.47       4.57
H      -0.59      29.37       6.38
H      -0.38      29.61       4.01
H       2.48      32.24       6.94
H     -14.99      12.47      33.18
H       2.53      33.14       0.22
H     -16.16      10.45      36.70
H     -18.77       7.96      33.90
H     -20.56       7.95      28.96
H     -10.99      19.96      30.62
H      -0.04      30.15       8.61
H      -0.31      28.88      18.42
H       1.60      29.73      17.29
H      -2.80      30.37      15.36
H      -0.89      31.24      14.23
H       0.52      33.41      14.14
H      16.77      -5.84      15.16
H      19.23      -7.33      18.24
H       2.98      31.92      17.23
H       4.46      31.87      14.90
H       6.45      30.60      15.14
H       4.18      27.05      15.24
H       2.18      28.32      15.00
H       0.64      29.24      13.13
H       2.95      32.77      13.00
H       2.84      32.76      10.62
H       0.54      29.22      10.76
H      11.36      15.31      27.41
H      11.85      13.10      28.17
H      10.09      13.75      23.69
H      17.63       7.03      32.12
H      14.66       9.84      33.23
H      16.03      10.57      35.05
H      19.00       7.77      33.94
H      13.60       1.85      26.99
H      11.91       2.21      22.45
H      12.07       4.17      23.79
H      13.45      -0.11      25.64
H      13.39       9.78      29.37
H      14.30       5.66      29.09
H      11.93       7.51      26.12
H      10.57      11.53      24.45
H      11.23      16.69      25.25
H     -25.58       9.06      36.28
H      12.43      -0.14      22.11
H      -3.27     -16.90      33.95
H      -2.92     -15.26      32.25
H       0.92     -17.33      34.40
H      -4.67     -11.92      23.79
H      -6.20     -11.65      27.73
H      -8.43     -11.79      26.87
H     -23.13      29.32      22.94
H       3.20      -9.38      24.57
H       7.23     -11.31      26.48
H       5.11     -11.92      27.37
H       5.32      -8.76      23.68
H      -2.65     -13.16      29.03
H      -0.61     -11.05      26.00
H       1.55     -12.76      29.20
H       1.27     -15.68      32.70
H     -18.37      22.45      35.00
H      -9.45     -11.54      23.57
H       8.53     -10.21      24.75
H      17.26      25.94      24.13
H      15.02      25.43      23.46
H      32.50     -11.35      24.30
H       7.24      20.48      24.43
H      10.94      20.29      22.37
H      11.11      17.96      22.90
H       7.43      18.15      24.96
H       3.91      27.62      21.79
H      21.07      -9.08      22.62
H      22.85     -10.66      22.76
H       2.14      29.21      21.66
H      11.36      24.27      23.10
H       7.20      24.82      22.63
H       9.79      28.16      22.65
H      30.26     -11.85      23.63
H     -25.88      27.68      25.46
H       8.65      15.90      24.20
H      18.70      -8.61      22.44
H     -23.68      12.73      35.32
H      -5.97      33.01       0.20
H      -9.30      29.80       1.69
H      14.02      -0.70       3.75
H      -1.42      37.81       0.75
H     -17.05      20.34      35.99
H      14.69       1.04       2.25
H      13.48      -5.22      10.71
H      -6.02      33.08      12.52
H      -5.82      33.32      10.15
H      13.27      -5.45      13.08
H      -4.12      35.39       2.59
H      -2.91      36.85       6.36
H      -5.29      33.37       6.10
H      -7.90      30.88       3.31
H     -26.00      11.66      35.10
H      16.12       1.48       0.03
H      10.75      -7.54      14.75
H      10.48      -8.81      24.55
H      12.39      -7.96      23.43
H       7.99      -7.32      21.50
H       9.90      -6.45      20.37
H      11.31      -4.28      20.28
H      11.34      -2.13      21.30
H      13.79      -3.62      24.38
H      13.77      -5.77      23.37
H      15.25      -5.82      21.04
H      17.24      -7.09      21.28
H      14.97     -10.64      21.38
H      12.98      -9.37      21.13
H      11.44      -8.45      19.27
H      13.74      -4.92      19.14
H      13.63      -4.93      16.76
H      11.34      -8.47      16.90
N       2.59      25.32      11.40
N       7.33      32.50      11.25
N       7.05      27.37       2.99
N      12.01      24.23       9.28
N      -2.84      29.03      17.54
N      18.12      -5.19      17.39
N       1.61      31.08       9.13
N       6.58      27.94      15.42
N       7.95      -8.66      23.68
N      12.68      -1.48      23.53
N      12.40      -6.61      15.27
N      17.37      -9.75      21.56
