420

Ba       3.46       1.86      16.79
Ba       1.00      -1.58      18.54
Ba       7.83       2.17      15.76
Ba       7.70       6.57      14.68
Ba       4.58      11.61      18.72
Ba       7.77      -3.28      14.42
Ba      10.44       8.73      17.73
Ba       7.98      12.17      15.97
Ba       0.85       8.42      18.76
Ba       0.73       4.02      19.83
Ba      11.56      -1.03      15.80
Ba       0.79      13.87      20.10
Ba      10.49      11.69       6.22
Ba      12.95      15.13       4.47
Ba       6.12      11.38       7.25
Ba       6.25       6.98       8.33
Ba       9.37       1.94       4.29
Ba       6.18      16.83       8.59
Ba       3.51       4.83       5.28
Ba       5.97       1.38       7.04
Ba      13.10       5.14       4.25
Ba      13.23       9.53       3.18
Ba       2.39      14.58       7.21
Ba      13.16      -0.32       2.91
H      10.66       3.89      11.50
H      11.63       2.13      10.34
H      10.36       0.30       9.78
H       4.25       0.10      12.76
H       2.84       1.52      11.61
H       3.71       3.21      10.33
H       6.55       3.90      19.61
H       6.49       5.07      21.60
H       5.61       7.21      21.62
H       2.31       6.80      15.00
H       3.37       8.55      13.98
H       5.18       9.55      14.95
H       6.10      -0.83      21.09
H       7.31      -2.70      21.72
H       7.49      -4.50      20.26
H       2.46      14.80      15.84
H       2.96      -3.42      13.98
H       4.45      -1.66      14.14
H      10.46       8.25      14.30
H      10.92       7.02      14.76
H       4.70      12.08      15.49
H       4.80      13.32      15.86
H       2.09      11.32      20.62
H       3.12      11.62      21.50
H       3.68       6.70      23.01
H       4.65      14.38       1.17
H       3.38      16.21       1.72
H      11.23      10.49      21.76
H       9.82       9.07      22.91
H      10.69      13.30       1.17
H      13.53       6.69      14.90
H      13.47       5.51      12.92
H      12.59       3.38      12.89
H       9.29       3.78      19.51
H      10.34       2.04      20.54
H      12.16       1.04      19.57
H      13.08      11.42      13.42
H       0.33      13.29      12.80
H       0.51      15.08      14.26
H       9.44      -4.21      18.67
H       9.94      14.00      20.53
H      11.43      12.25      20.37
H       3.48       2.34      20.21
H       3.94       3.56      19.76
H      11.68      -1.50      19.02
H      11.77      -2.73      18.66
H       9.06      -0.73      13.89
H      10.10      -1.03      13.01
H       3.30       9.66      11.50
H       2.33      11.42      12.67
H       3.60      13.25      13.23
H       9.70      13.45      10.25
H      11.11      12.03      11.40
H      10.24      10.34      12.68
H       7.40       9.65       3.40
H       7.47       8.48       1.41
H       8.34       6.34       1.39
H      11.65       6.75       8.01
H      10.59       5.00       9.03
H       8.77       4.00       8.06
H       7.85      14.38       1.92
H       6.65      16.25       1.29
H       6.46      18.05       2.75
H      11.50      -1.25       7.17
H      11.00      16.97       9.03
H       9.51      15.21       8.87
H       3.50       5.30       8.71
H       3.04       6.53       8.25
H       9.25       1.47       7.52
H       9.16       0.23       7.15
H      11.87       2.23       2.39
H      10.84       1.94       1.51
H      10.27       6.85       0.00
H       9.30      -0.83      21.84
H      10.57      -2.66      21.29
H       2.73       3.06       1.25
H       4.13       4.48       0.10
H       3.26       0.25      21.84
H       0.43       6.86       8.11
H       0.49       8.04      10.09
H       1.37      10.17      10.12
H       4.67       9.77       3.50
H       3.61      11.51       2.47
H       1.80      12.51       3.44
H       0.87       2.13       9.59
H      13.62       0.26      10.21
H      13.44      -1.53       8.75
H       4.52      17.77       4.34
H       4.02      -0.45       2.48
H       2.53       1.30       2.64
H      10.47      11.21       2.80
H      10.01       9.99       3.25
H       2.27      15.05       3.99
H       2.18      16.28       4.35
H       4.89      14.28       9.12
H       3.86      14.58      10.00
C       8.01       2.05      11.17
C       8.82       3.10      11.61
C      10.14       3.15      11.27
C      10.73       2.11      10.56
C       9.96       1.03      10.20
C       8.61       1.01      10.44
C       6.53       1.97      11.41
C       5.98       0.96      12.20
C       4.61       0.79      12.25
C       3.76       1.64      11.56
C       4.28       2.64      10.79
C       5.65       2.81      10.71
C       8.37       4.17      12.59
C       7.81      -0.16       9.89
C       6.85       0.06      13.00
C       6.16       3.89       9.79
C       5.22       6.64      18.44
C       5.76       5.34      18.44
C       6.21       4.76      19.63
C       6.17       5.46      20.81
C       5.63       6.74      20.82
C       5.14       7.33      19.68
C       4.69       7.23      17.18
C       3.52       6.70      16.63
C       3.05       7.19      15.40
C       3.69       8.23      14.79
C       4.79       8.81      15.35
C       5.34       8.30      16.54
C       5.87       4.50      17.19
C       4.54       8.70      19.76
C       2.76       5.62      17.34
C       6.60       8.91      17.08
C       5.50      -2.65      18.45
C       5.41      -1.54      19.33
C       6.13      -1.57      20.53
C       6.88      -2.68      20.90
C       6.98      -3.76      20.02
C       6.34      -3.74      18.80
C       4.72      -2.74      17.20
C       3.70      -3.72      17.12
C       3.08      -3.99      15.90
C       3.37      -3.23      14.79
C       4.29      -2.20      14.88
C       4.97      -1.96      16.09
C       4.55      -0.34      19.04
C       6.63      14.59      17.84
C       3.18      -4.42      18.35
C       6.04      -0.87      16.13
C       1.03      14.47       0.33
C       1.84       7.49      22.91
C       3.17      13.37       0.24
C       3.75      14.41       0.94
C       2.98      15.49       1.31
C       1.64      15.51       1.07
C      13.51      14.54       0.10
C      12.95       9.62      22.31
C      11.59       9.79      22.26
C      10.74       8.95      22.96
C      11.26      13.88       0.71
C      12.63      13.71       0.80
C       1.40       6.42      21.92
C       0.84      16.67       1.62
C      13.83      10.53      21.52
C      13.14      12.62       1.71
C      12.19       3.95      16.07
C      12.73       5.25      16.07
C      13.19       5.82      14.89
C      13.14       5.13      13.70
C      12.61       3.85      13.69
C      12.11       3.26      14.84
C      11.67       3.36      17.34
C      10.50       3.88      17.89
C      10.03       3.40      19.11
C      10.67       2.36      19.72
C      11.77       1.78      19.16
C      12.31       2.29      17.97
C      12.84       6.09      17.33
C      11.52       1.88      14.76
C       9.74       4.96      17.17
C      13.58       1.68      17.44
C      12.48      13.24      16.06
C      12.39      12.13      15.18
C      13.10      12.16      13.99
C      13.85      13.26      13.62
C       0.00      14.34      14.50
C      13.32      14.33      15.71
C      11.69      13.33      17.32
C      10.68      14.31      17.40
C      10.06      14.57      18.61
C      10.35      13.82      19.72
C      11.26      12.79      19.63
C      11.95      12.55      18.43
C      11.53      10.93      15.48
C      13.61      -4.01      16.68
C      10.16      15.01      16.16
C      13.02      11.46      18.38
C       5.94      11.50      11.84
C       5.14      10.45      11.40
C       3.81      10.40      11.74
C       3.23      11.44      12.45
C       4.00      12.52      12.81
C       5.34      12.54      12.57
C       7.42      11.58      11.60
C       7.98      12.59      10.81
C       9.34      12.76      10.76
C      10.19      11.91      11.45
C       9.67      10.91      12.22
C       8.30      10.74      12.30
C       5.58       9.38      10.42
C       6.14      13.71      13.12
C       7.10      13.49      10.01
C       7.80       9.66      13.22
C       8.74       6.91       4.57
C       8.20       8.21       4.57
C       7.74       8.79       3.38
C       7.79       8.09       2.20
C       8.32       6.81       2.19
C       8.82       6.22       3.33
C       9.26       6.32       5.83
C      10.43       6.85       6.38
C      10.90       6.36       7.61
C      10.27       5.32       8.22
C       9.17       4.74       7.66
C       8.62       5.26       6.47
C       8.09       9.05       5.82
C       9.41       4.85       3.25
C      11.19       7.93       5.67
C       7.35       4.64       5.93
C       8.45      16.20       4.56
C       8.54      15.09       3.68
C       7.83      15.12       2.48
C       7.08      16.23       2.11
C       6.97      17.31       2.99
C       7.61      17.29       4.21
C       9.24      16.30       5.81
C      10.25      17.27       5.89
C      10.87      17.54       7.11
C      10.58      16.78       8.22
C       9.67      15.75       8.13
C       8.98      15.51       6.92
C       9.40      13.89       3.97
C       7.32      -1.04       5.17
C      10.77      17.97       4.66
C       7.92      14.42       6.88
C      12.92      -0.91      22.68
C      12.12       6.07       0.10
C      10.79       0.18      22.77
C      10.20      -0.86      22.07
C      10.97      -1.93      21.70
C      12.32      -1.96      21.94
C       0.44      -0.99      22.91
C       1.00       3.93       0.70
C       2.37       3.76       0.75
C       3.21       4.60       0.05
C       2.69      -0.32      22.30
C       1.32      -0.16      22.21
C      12.56       7.13       1.09
C      13.12      -3.12      21.39
C       0.12       3.02       1.49
C       0.82       0.93      21.30
C       1.76       9.60       6.94
C       1.22       8.31       6.94
C       0.77       7.73       8.12
C       0.81       8.42       9.31
C       1.34       9.70       9.32
C       1.84      10.29       8.17
C       2.29      10.19       5.67
C       3.45       9.67       5.12
C       3.92      10.15       3.90
C       3.29      11.19       3.29
C       2.19      11.77       3.85
C       1.64      11.26       5.04
C       1.11       7.46       5.68
C       2.44      11.67       8.25
C       4.22       8.59       5.84
C       0.37      11.87       5.57
C       1.47       0.31       6.95
C       1.56       1.42       7.83
C       0.85       1.39       9.02
C       0.10       0.29       9.39
C      13.95      -0.79       8.51
C       0.64      -0.78       7.30
C       2.26       0.22       5.69
C       3.27      -0.76       5.61
C       3.90      -1.02       4.40
C       3.60      -0.27       3.29
C       2.69       0.76       3.38
C       2.00       1.00       4.58
C       2.42       2.62       7.53
C       0.34      17.56       6.33
C       3.79      -1.46       6.85
C       0.94       2.09       4.63
O       7.59       3.84      13.52
O       8.85       5.32      12.46
O       8.25      -1.32      10.06
O       6.78       0.07       9.22
O       6.61      -1.17      13.02
O       7.83       0.58      13.62
O       6.37       5.01      10.26
O       6.28       3.61       8.56
O       6.05       5.05      16.08
O       5.79       3.25      17.36
O       5.16       9.54      20.45
O       3.50       8.98      19.11
O       2.04       5.97      18.30
O       2.87       4.46      16.94
O       7.65       8.25      17.06
O       6.52      10.13      17.48
O       3.46      -0.49      18.48
O       5.02       0.77      19.39
O       6.66      13.42      18.31
O       6.90      14.85      16.65
O       3.12      13.81      18.35
O       2.74      -3.70      19.28
O       7.23      -1.22      16.19
O       5.63       0.33      16.10
O      10.33       7.63      14.87
O       5.03      12.51      15.98
O       2.74      11.84      20.77
O       0.61       6.75      20.99
O       1.87       5.27      22.06
O       1.28      17.83       1.45
O      13.76      16.44       2.28
O      13.58      11.76      21.49
O       0.86      10.00      20.89
O      13.35      11.50       1.25
O      13.26      12.90       2.95
O      13.02       5.54      18.43
O      12.77       7.34      17.16
O      12.13       1.05      14.06
O      10.48       1.61      15.40
O       9.02       4.62      16.22
O       9.84       6.13      17.57
O       0.67       2.34      17.45
O      13.49       0.46      17.03
O      10.43      11.08      16.04
O      12.00       9.81      15.12
O      13.63      -2.83      16.20
O      13.88      -4.26      17.86
O      10.10      -3.22      16.16
O       9.72      14.29      15.24
O       0.25      11.81      18.33
O      12.61      10.26      18.41
O       3.36       2.96      19.64
O      12.01      -1.92      18.54
O       9.72      -1.25      13.74
O       6.37       9.71       9.49
O       5.10       8.23      10.55
O       5.70      14.87      12.95
O       7.17      13.48      13.79
O       7.35      14.73       9.99
O       6.12      12.97       9.39
O       7.59       8.54      12.75
O       7.67       9.94      14.45
O       7.91       8.50       6.93
O       8.16      10.30       5.65
O       8.80       4.01       2.56
O      10.45       4.58       3.90
O      11.91       7.58       4.71
O      11.09       9.09       6.07
O       6.31       5.30       5.95
O       7.44       3.42       5.53
O      10.50      14.04       4.53
O       8.93      12.78       3.62
O       7.30       0.13       4.70
O       7.05      -1.29       6.36
O      10.83      -0.26       4.66
O      11.21      17.25       3.73
O       6.73      14.77       6.82
O       8.32      13.22       6.91
O       3.62       5.92       8.14
O       8.93       1.04       7.03
O      11.21       1.71       2.24
O      13.34       6.80       2.02
O      12.08       8.28       0.95
O      12.68      -4.28      21.56
O       0.19      -2.89      20.73
O       0.37       1.79       1.52
O      13.10       3.55       2.12
O       0.61       2.05      21.76
O       0.69       0.65      20.06
O       0.93       8.01       4.58
O       1.19       6.21       5.85
O       1.82      12.50       8.95
O       3.47      11.94       7.61
O       4.94       8.93       6.79
O       4.11       7.42       5.44
O      13.28      11.22       5.56
O       0.46      13.09       5.98
O       3.52       2.47       6.97
O       1.96       3.74       7.89
O       0.32      16.39       6.81
O       0.08      17.81       5.15
O       3.85      16.77       6.85
O       4.23      -0.74       7.77
O      13.70       1.74       4.68
O       1.34       3.29       4.60
O      10.60      10.60       3.37
O       1.95      15.47       4.47
O       4.23      14.80       9.27
