26

H      13.43       9.03      11.43
H      19.45       9.61      16.16
H      19.48      13.84      16.28
H      17.72      13.03      14.32
H      13.69       4.86      10.87
H      15.92       5.68      12.29
H      14.26       9.92      13.26
H      19.08       8.79      13.78
H      17.58       7.26      12.52
H      15.77      11.44      14.51
N      19.73      11.70      16.58
N      18.35      11.06      14.98
N      13.19       6.96      10.94
N      14.96       7.63      12.09
C      13.80       8.01      11.48
C      15.83       8.49      12.80
C      17.51      10.21      14.21
C      19.22      10.65      15.95
C      19.19      12.84      16.00
C      18.32      12.46      15.01
C      13.98       5.85      11.20
C      15.08       6.25      11.91
C      15.32       9.68      13.35
C      18.02       9.03      13.67
C      17.18       8.17      12.96
C      16.16      10.54      14.05
