26

H       9.95      14.08      10.23
H      10.10      18.25      10.81
C       3.66      13.38       5.80
H       9.03      13.43       7.97
H       6.07      16.26       9.33
H       7.89      17.66       9.23
C       3.64      11.21       5.52
C       5.71      13.58       7.25
C       5.36      14.72       7.98
C       7.03      13.11       7.25
C       4.71      11.48       6.32
H       3.42      14.43       5.74
H       3.27      10.26       5.16
N      10.37      16.11      10.79
N       8.64      15.65       9.47
H       4.33      15.07       8.00
H       7.30      12.24       6.65
H       5.48      10.85       6.74
N       3.00      12.40       5.18
N       4.72      12.86       6.51
C       9.70      15.13      10.17
C       9.73      17.29      10.46
C       7.66      14.93       8.72
C       8.00      13.78       7.99
C       6.34      15.40       8.72
C       8.66      17.03       9.65
