26

C       4.02      12.82      10.61
C       4.76      10.13      10.29
C       5.59      11.00      11.00
C       3.19      11.95       9.91
H       4.62      14.72      12.53
H       4.21       8.69       7.80
H      -0.01       8.54       7.67
H       0.75      10.33       9.63
H       8.80      14.57      13.09
H       8.03      12.32      11.67
H       3.75      13.87      10.69
H       5.03       9.08      10.18
H       6.51      10.62      11.44
H       2.28      12.32       9.44
N       2.13       8.35       7.37
N       2.73       9.75       8.97
N       6.68      15.03      13.02
N       6.07      13.24      11.86
C       5.65      14.39      12.47
C       5.22      12.34      11.15
C       3.56      10.61       9.74
C       3.17       8.89       8.01
C       0.98       8.85       7.96
C       1.34       9.74       8.94
C       7.81      14.26      12.76
C       7.45      13.15      12.05
