35

C       5.65       3.89       0.43
C       3.68       8.12      -1.42
C       4.36       4.14      -0.05
C       6.34       4.89       1.13
C       3.08       8.56      -2.60
C       3.77       5.39       0.15
C       4.46       6.40       0.85
C       3.74       7.74       1.09
C       1.12       9.21      -1.35
C       1.72       8.78      -0.17
C       5.75       6.13       1.34
C       3.01       8.21      -0.19
C       2.76       7.49       2.28
C       4.72       8.88       1.50
H       4.68       7.69      -1.46
H       3.82       3.36      -0.57
O       7.43       2.38       0.77
H       7.33       4.68       1.51
H       2.77       5.57      -0.23
H       3.62       8.49      -3.54
O      -0.00      10.14      -3.70
O       5.67       1.72      -0.52
H       0.12       9.65      -1.32
H       1.17       8.88       0.76
O       1.74       9.35      -4.93
H       6.30       6.88       1.89
F       5.24       8.70       2.75
F       1.73       6.70       1.88
F       2.24       8.65       2.76
F       5.75       8.95       0.60
F       4.12      10.10       1.52
F       3.36       6.87       3.34
C       1.12       9.56      -3.83
C       6.30       2.57       0.21
C       1.79       9.10      -2.57
