222

C       0.55      -5.02      10.45
C       0.19      -4.95      11.84
C      10.04      -3.76      12.56
C      10.03      -2.56      11.79
C       0.26      -2.52      10.38
C       0.72      -3.74       9.78
C       0.55      16.94       9.79
C       0.72      15.67      10.46
C       0.25      14.44       9.87
C      10.02      14.48       8.46
C      10.03      15.68       7.69
C       0.19      16.87       8.40
C       0.56       0.11      19.46
C       0.20       1.28      18.71
C      10.03       1.30      17.32
C      10.02       0.04      16.67
C       0.25      -1.20      17.34
C       0.72      -1.11      18.69
C       0.56      11.81       0.78
C       0.72      13.03       1.55
C       0.25      13.13       2.90
C      10.02      11.89       3.57
C      10.04      10.62       2.92
C       0.20      10.65       1.53
C       0.56       5.35      10.52
C       0.20       4.12       9.88
C      10.03       2.90      10.56
C      10.02       2.97      11.98
C       0.26       4.17      12.72
C       0.72       5.29      11.96
C       0.55       6.57       9.73
C       0.72       6.63       8.29
C       0.25       7.76       7.53
C      10.02       8.95       8.27
C      10.02       9.02       9.69
C       0.19       7.81      10.36
C       0.01      14.35       3.65
C       8.83      14.50       4.33
C       8.77      15.12       5.62
C       9.89      15.67       6.25
C       0.94      15.87       5.39
C       1.04      15.19       4.14
C       6.43      14.83       5.67
C       6.46      14.18       4.41
C       5.21      15.03       6.47
C       3.93      14.66       5.71
C       4.10      13.45       4.77
C       5.22      13.76       3.74
C       0.01       7.79       6.10
C       8.83       8.30       5.61
C       8.77       9.11       4.44
C       9.90       9.38       3.65
C       0.95       8.54       3.91
C       1.05       7.80       5.13
C       6.43       9.31       4.66
C       6.47       8.54       5.85
C       5.22       9.90       4.10
C       3.93       9.43       4.79
C       4.11       9.22       6.32
C       5.22       8.17       6.56
C       0.01      13.19      10.56
C       8.83      12.52      10.35
C       8.77      11.09      10.25
C       9.89      10.27      10.40
C       0.95      10.92      10.99
C       1.05      12.34      11.03
C       6.43      11.19       9.96
C       6.46      12.61      10.03
C       5.21      10.41       9.73
C       3.93      11.25       9.79
C       4.10      12.67       9.20
C       5.22      13.41       9.99
C       0.01      -2.42      16.60
C       8.83      -2.58      15.91
C       8.77      -3.20      14.62
C       9.90      -3.75      13.99
C       0.95      -3.94      14.85
C       1.05      -3.26      16.10
C       6.43      -2.90      14.56
C       6.46      -2.26      15.82
C       5.22      -3.10      13.77
C       3.93      -2.74      14.53
C       4.10      -1.52      15.46
C       5.22      -1.83      16.50
C       0.01       4.14      14.15
C       8.83       3.63      14.63
C       8.77       2.82      15.81
C       9.90       2.54      16.60
C       0.95       3.38      16.34
C       1.05       4.13      15.12
C       6.43       2.62      15.58
C       6.46       3.39      14.39
C       5.22       2.03      16.14
C       3.93       2.50      15.45
C       4.11       2.71      13.93
C       5.22       3.76      13.68
C       0.01      -1.27       9.69
C       8.83      -0.59       9.90
C       8.77       0.83      10.00
C       9.90       1.65       9.85
C       0.95       1.01       9.25
C       1.05      -0.42       9.21
C       6.43       0.73      10.29
C       6.47      -0.68      10.22
C       5.22       1.52      10.51
C       3.93       0.68      10.45
C       4.11      -0.74      11.04
C       5.22      -1.48      10.25
H      10.02      -5.80      12.35
H      10.02      17.72       7.89
H       1.96      -4.41       8.31
H       1.49      -2.85       8.10
H       1.49      14.78      12.15
H       1.96      16.33      11.93
H       0.40      12.55       8.13
H       9.22      13.14       7.23
H       0.43      -0.63      12.12
H       9.22      -1.21      12.98
H      10.03       2.15      19.19
H      10.03       9.77       1.05
H       1.97      -2.05      20.00
H       1.49      -3.01      18.77
H       1.49      14.94       1.47
H       1.97      13.97       0.24
H       0.41      12.56       5.41
H       9.19      11.54       5.32
H       0.39      -0.64      14.83
H       9.18       0.39      14.92
H      10.03       4.09       8.89
H      10.02       7.83      11.36
H       1.97       6.90      12.11
H       1.50       6.31      13.57
H       1.50       5.62       6.68
H       1.97       5.03       8.13
H       0.37      10.22       6.75
H       9.20      10.69       7.73
H       0.38       1.71      13.50
H       9.22       1.23      12.52
H       1.95      15.18       3.67
H       1.75      16.37       5.76
H       5.15      16.07       6.80
H       5.31      14.40       7.34
H       3.69      15.53       5.10
H       3.12      14.47       6.42
H       3.17      13.21       4.26
H       4.36      12.59       5.39
H       4.89      14.57       3.09
H       5.40      12.90       3.10
H       1.96       7.40       5.37
H       1.76       8.61       3.29
H       5.16       9.68       3.03
H       5.32      10.97       4.21
H       3.70       8.46       4.35
H       3.13      10.14       4.60
H       3.18       8.89       6.78
H       4.38      10.19       6.75
H       4.89       7.20       6.18
H       5.41       8.04       7.63
H       1.95      12.75      11.26
H       1.75      10.35      11.24
H       5.15       9.60      10.46
H       5.32       9.97       8.75
H       3.69      11.34      10.85
H       3.12      10.72       9.27
H       3.17      13.23       9.25
H       4.37      12.56       8.15
H       4.89      13.56      11.02
H       5.41      14.39       9.57
H       1.95      -3.25      16.57
H       1.75      -4.44      14.48
H       5.15      -4.15      13.44
H       5.31      -2.48      12.90
H       3.69      -3.61      15.14
H       3.13      -2.55      13.81
H       3.17      -1.28      15.98
H       4.37      -0.66      14.84
H       4.89      -2.65      17.15
H       5.41      -0.97      17.14
H       1.95       4.53      14.88
H       1.75       3.31      16.95
H       5.15       2.25      17.21
H       5.32       0.96      16.03
H       3.69       3.47      15.90
H       3.13       1.79      15.64
H       3.17       3.04      13.47
H       4.37       1.74      13.49
H       4.89       4.73      14.06
H       5.41       3.88      12.62
H       1.95      -0.83       8.98
H       1.75       1.58       9.00
H       5.15       2.33       9.78
H       5.32       1.96      11.49
H       3.69       0.58       9.40
H       3.13       1.20      10.98
H       3.17      -1.31      10.98
H       4.37      -0.64      12.09
H       4.89      -1.64       9.22
H       5.41      -2.47      10.67
N      10.03      -1.40      12.49
N      10.01      13.32       7.77
N       1.39      -3.68       8.59
N       1.39      15.60      11.64
N      10.00       0.06      15.32
N      10.02      11.86       4.92
N       1.40      -2.16      19.23
N       1.40      14.09       1.01
N      10.00       1.79      12.65
N       9.99      10.13       7.61
N       1.40       6.29      12.61
N       1.40       5.64       7.64
N       7.58      15.24       6.24
N       7.66      14.04       3.80
N       7.59       9.59       4.03
N       7.67       8.07       6.28
N       7.58      10.50      10.04
N       7.66      13.21      10.22
N       7.58      -3.31      14.00
N       7.67      -2.12      16.44
N       7.58       2.34      16.21
N       7.67       3.86      13.96
N       7.58       1.42      10.21
N       7.67      -1.29      10.03
