46

Zn       3.43      12.49      15.59
Zn       3.96      14.00      12.94
Zn       3.44      15.70      15.51
Zn       1.12      14.07      13.94
Zn      -1.50      12.45      13.93
Zn      -1.54      15.60      13.93
Zn      -0.74      14.02      16.68
C       0.76      11.21      12.93
Zn      -3.88      14.08      17.79
O       1.36      11.98      13.71
O      -0.49      11.26      12.73
O       1.42      16.15      13.68
O      -0.51      16.89      12.85
C       1.31      11.35      16.90
C      -2.60      11.49      16.37
O       4.28      13.02      17.30
O       4.49      15.18      17.16
C       4.61      14.11      17.74
C      -3.45      13.98      12.37
O      -3.02      15.09      12.76
O      -3.08      12.86      12.83
C       5.45      16.46      13.49
C       5.42      11.60      13.61
C       1.76      14.05      11.01
O       4.83      16.72      14.54
O       5.22      15.47      12.74
O       5.14      12.49      12.77
O       4.90      11.48      14.74
O       2.97      14.07      14.60
C       1.26      16.66      16.89
O       2.99      14.07      11.27
O       0.87      14.05      11.87
O      -0.69      14.04      14.68
C      -1.56      14.05      19.60
C       0.74      16.96      13.03
O      -2.46      15.42      16.86
O      -2.27      16.88      15.20
O      -0.72      14.03      18.67
O      -2.81      14.03      19.49
O       0.76      15.55      16.67
O       2.37      17.04      16.41
C      -2.66      16.56      16.35
O       2.43      11.03      16.36
O       0.74      12.43      16.72
O      -2.14      11.16      15.25
O      -2.51      12.65      16.85
