46

O       4.85       2.03       9.86
O       4.46       3.28      11.65
O       4.54       6.27      11.62
O       4.78       7.27       9.66
O       6.71       4.68       9.80
O       6.69       4.68      13.12
O       8.81       4.70      12.53
Zn       6.25       6.26       8.81
Zn       5.73       4.75      11.46
Zn       6.24       3.05       8.88
O      10.37       4.72       9.72
Zn       8.57       4.69      10.45
Zn      11.18       6.30      10.47
Zn      10.43       4.73       7.71
Zn      11.22       3.15      10.47
Zn      13.56       4.68       6.61
O      11.95       1.87       9.19
O      10.41       4.73       5.72
C       5.07       4.64       6.66
O       8.92       3.20       7.72
O       7.31       1.71       7.99
C      13.13       4.78      12.03
O      12.14       3.34       7.53
O      12.49       4.73       4.91
O       7.25       7.72       8.03
O       8.94       6.32       7.68
C       8.37       7.40       7.50
C      12.28       7.27       8.03
O      11.82       7.59       9.15
O      12.19       6.10       7.55
C       4.23       2.30      10.91
C       4.26       7.15      10.79
C       8.94       1.80      11.37
C       7.92       4.70      13.38
O       8.32       6.78      10.68
O      10.17       7.49      11.67
O       8.26       2.61      10.72
O      10.19       1.86      11.55
C       8.42       2.09       7.51
O       5.40       5.74       7.10
O       5.19       3.57       7.24
C      11.24       4.70       4.80
C       8.93       7.54      11.47
O      12.70       3.66      11.64
O      12.76       5.89      11.57
C      12.34       2.19       8.04
