15

H       2.46       4.32      13.52
N       0.34       5.82      10.92
C       1.93       4.70      12.86
H       3.36       5.87      12.05
C      -1.61       4.63      11.53
C      -0.16       4.92      11.77
C       0.60       4.34      12.76
C       2.05       7.18      10.01
C       1.63       6.17      11.03
C       2.46       5.62      11.99
H       0.23       3.72      13.35
O      -2.14       5.20      10.53
O      -2.22       3.88      12.32
O       1.14       7.63       9.25
O       3.26       7.51       9.94
