15

C       5.55      -4.56      12.38
C       6.32      -5.14      11.38
C       7.77      -4.18      15.22
C       7.34      -4.56      13.83
C       8.18      -5.11      12.88
H       8.18      -5.78      10.99
N       6.05      -4.28      13.59
C       7.64      -5.40      11.64
H       5.95      -5.34      10.55
H       9.07      -5.28      13.06
O       3.58      -3.63      13.24
O       3.49      -4.53      11.20
O       6.86      -3.74      15.98
O       8.97      -4.28      15.54
C       4.10      -4.22      12.25
