15

C       4.91       2.13      12.75
C       4.69       1.19      11.60
C       3.89       0.06      11.64
O       5.62       3.15      12.51
O       4.40       1.86      13.86
N       5.38       1.54      10.50
H       3.43      -0.17      12.41
C       6.09       1.29       8.26
C       3.79      -0.70      10.50
C       5.28       0.78       9.41
C       4.48      -0.36       9.36
O       6.81       2.30       8.50
O       6.00       0.73       7.15
H       4.42      -0.87       8.59
H       3.25      -1.46      10.50
