15

C       0.81       5.96       1.25
C       1.03       6.89       2.41
C       1.83       8.02       2.36
H       2.29       8.25       1.59
N       0.34       6.54       3.50
H       1.30       8.95       5.41
C       1.93       8.79       3.50
C      -0.37       6.79       5.75
C       0.44       7.31       4.60
C       1.23       8.44       4.64
O       0.10       4.94       1.49
O       1.31       6.23       0.15
O      -1.10       5.78       5.51
O      -0.28       7.36       6.86
H       2.46       9.55       3.50
