15

H      -2.46       1.74      10.02
C       0.37      -1.58       8.76
C      -0.44      -0.33       8.63
C      -1.23       0.20       9.63
N      -0.34       0.24       7.41
C      -1.93       1.36       9.36
H      -2.29       2.75       7.94
C      -1.83       1.96       8.13
H      -1.30      -0.21      10.46
O      -0.10       1.17       5.02
O      -1.31       2.99       5.47
C      -0.81       1.89       5.79
C      -1.03       1.36       7.17
O       1.10      -1.88       7.76
O       0.28      -2.26       9.80
