10

Zn       4.63       8.84      23.58
O       2.93       8.07      24.23
N       5.53       9.72      25.19
P       6.76       6.58      22.68
P       3.91      11.65      22.47
O       5.54       7.51      22.54
O       4.01      10.13      22.21
P       2.09       8.41      25.48
C       6.68       9.25      25.72
C       4.88      10.72      25.82
