10

C       1.19       5.65      13.55
C      -0.76       4.57      14.23
Zn      -1.22       6.22      11.85
P      -2.09       3.41      10.64
N      -0.13       5.39      13.35
P       0.76       8.34      10.43
P      -3.91       6.65      13.65
O      -1.74       4.91      10.50
O      -0.60       7.74      10.82
O      -2.81       7.06      12.65
