144

Li       4.14       2.45       4.15
Li       3.87      10.11       6.51
Li       2.28      12.88      17.17
Li       2.55       5.22      14.81
Zn       1.72       4.12       5.56
Zn       6.30      11.76       5.10
Zn       4.70      11.21      15.76
Zn       0.12       3.56      16.22
H       3.65       7.56       4.47
H       5.01      10.98       1.41
H       4.11       4.26       1.01
H      -0.89       7.87       6.08
H       0.95       5.28       9.69
H       5.83      10.15       9.19
H       4.38      15.23       6.19
H       3.00       3.33       9.26
H       3.91      11.93       9.64
H      -0.68       0.22       4.58
H       7.08      12.94       0.99
H       2.17       2.49       1.46
H       2.77       7.77      16.85
H       1.40       4.35      19.91
H       2.31      11.07      20.30
H       7.31       7.46      15.24
H       5.46      10.04      11.63
H       0.59       5.18      12.13
H       2.04       0.10      15.13
H       3.42      12.00      12.06
H       2.51       3.40      11.68
H       7.10      15.11      16.74
H      -0.66       2.39      20.33
H       4.25      12.84      19.86
C       3.52       5.15       3.45
C       3.94       6.39       2.70
C       3.95       7.58       3.42
C       4.35       8.78       2.85
C       4.46       9.95       3.79
C       4.68       8.84       1.47
C       5.00      10.07       0.82
C       4.32       5.21       0.52
C       4.31       6.39       1.32
C       4.65       7.64       0.70
C       0.71       6.07       7.22
C      -0.32       6.91       7.92
C      -1.05       7.83       7.16
C       7.58       8.65       7.75
C       6.73       9.52       6.87
C      -0.51       6.84       9.34
C       0.21       5.93      10.15
C       6.41       9.45       9.80
C       7.35       8.61       9.16
C       8.11       7.69       9.95
C       4.49      12.81       7.21
C       4.09      14.05       7.96
C       4.08      15.25       7.24
C       3.66       1.13       7.81
C       3.54       2.30       6.87
C       3.33       1.19       9.19
C       3.01       2.42       9.84
C       3.70      12.87      10.13
C       3.71      14.06       9.34
C       3.37      15.30       9.96
C       7.31      13.73       3.43
C       8.35      14.57       2.74
C      -0.52       0.17       3.50
C       0.43       1.00       2.91
C       1.28       1.88       3.79
C       8.54      14.49       1.32
C       7.81      13.59       0.52
C       1.59       1.79       0.85
C       0.66       0.95       1.50
C      -0.10       0.03       0.71
C       2.90      10.18      17.87
C       2.48       8.94      18.62
C       2.47       7.75      17.90
C       2.07       6.54      18.47
C       1.95       5.38      17.53
C       1.74       6.48      19.85
C       1.42       5.26      20.50
C       2.10      10.12      20.79
C       2.11       8.94      20.00
C       1.77       7.69      20.62
C       5.71       9.26      14.09
C       6.74       8.42      13.40
C       7.47       7.50      14.16
C      -1.16       6.68      13.57
C      -0.31       5.81      14.45
C       6.93       8.49      11.98
C       6.21       9.40      11.17
C       0.01       5.87      11.52
C      -0.93       6.72      12.16
C      -1.69       7.64      11.36
C       1.92       2.52      14.11
C       2.33       1.28      13.36
C       2.34       0.08      14.08
C       2.76      14.20      13.51
C       2.88      13.03      14.45
C       3.09      14.14      12.12
C       3.41      12.91      11.47
C       2.72       2.45      11.19
C       2.71       1.27      11.98
C       3.04       0.02      11.36
C      -0.89       1.60      17.89
C      -1.93       0.76      18.58
C       6.94      15.16      17.81
C       5.99      14.33      18.40
C       5.14      13.45      17.53
C      -2.12       0.83      20.00
C      -1.39       1.74      20.80
C       4.82      13.53      20.46
C       5.76      14.38      19.82
C       6.52      15.30      20.61
O       4.06       4.04       3.19
O       2.62       5.38       4.34
O       3.58      10.08       4.67
O       5.52      10.68       3.66
O       0.26       5.18       6.42
O       1.90       6.33       7.46
O       5.51       9.20       6.80
O       7.33      10.48       6.27
O       3.94      11.71       7.47
O       5.40      13.02       6.32
O       4.43       2.45       6.00
O       2.47       3.00       7.00
O       7.75      12.80       4.20
O       6.12      14.03       3.20
O       2.50       1.57       3.86
O       0.68       2.83       4.39
O       2.36      11.29      18.13
O       3.80       9.95      16.98
O       2.84       5.25      16.65
O       0.90       4.65      17.66
O       6.16      10.15      14.90
O       4.52       9.00      13.85
O       0.90       6.13      14.52
O      -0.91       4.85      15.05
O       2.48       3.62      13.84
O       1.02       2.31      15.00
O       1.99      12.88      15.32
O       3.95      12.33      14.32
O      -1.33       2.53      17.12
O       0.30       1.30      18.12
O       3.92      13.76      17.46
O       5.74      12.49      16.93
