32

C       9.57      10.37      13.68
C       9.89      11.26      12.52
C       8.90      11.42      11.53
C       9.13      12.25      10.44
C      10.33      12.97      10.34
C      11.31      12.83      11.34
C      11.10      11.96      12.41
C      10.56      13.93       9.21
H      10.92       6.27      18.24
H       8.65       9.12      15.95
H      12.71       8.15      14.83
H       7.95      10.90      11.64
H       8.36      12.37       9.68
H      12.22      13.42      11.26
H      11.85      11.89      13.19
H      11.52       9.75      13.67
N      10.66       9.68      14.19
O      14.21       6.66      16.05
O      13.22       5.39      17.61
O       8.80       6.98      19.27
O       7.36       7.86      17.80
O       8.43      10.27      14.14
O       9.89      13.75       8.13
O      11.39      14.87       9.42
C      13.18       6.33      16.73
C      11.92       7.10      16.53
C      10.84       6.94      17.40
C       9.67       7.68      17.19
C       9.57       8.57      16.12
C      10.67       8.76      15.26
C      11.84       8.02      15.47
C       8.54       7.50      18.14
