32

H      14.15       6.28      19.55
H      16.42       9.12      21.86
H      12.35       8.16      22.96
H      17.10      10.90      26.17
H      16.69      12.37      28.13
H      12.84      13.42      26.55
H      13.20      11.88      24.62
H      13.53       9.76      24.12
N      14.40       9.68      23.61
O      10.85       6.65      21.73
C      11.88       6.33      21.05
C      13.13       7.11      21.27
C      14.22       6.95      20.40
O      17.70       7.87      19.98
O      16.64      10.22      23.71
O      16.24       6.97      18.53
C      15.39       7.68      20.62
O      15.18      13.76      29.67
O      13.64      14.84      28.41
O      11.86       5.40      20.17
C      15.49      10.35      24.14
C      15.17      11.25      25.29
C      15.50       8.57      21.69
C      14.39       8.76      22.54
C      13.22       8.03      22.32
C      16.51       7.51      19.65
C      16.15      11.42      26.28
C      13.96      11.96      25.40
C      15.93      12.25      27.37
C      13.75      12.83      26.47
C      14.72      12.97      27.47
C      14.50      13.92      28.60
