32

C       8.26      17.49       4.13
C       9.54      18.23       3.92
C      10.61      18.05       4.79
C      11.80      18.77       4.58
C      11.92      19.65       3.51
C      10.82      19.86       2.66
C       9.64      19.14       2.87
C      12.92      18.57       5.55
C      11.93      21.45       1.07
C      11.60      22.35      -0.08
C      12.58      22.52      -1.07
C      12.33      23.35      -2.16
C      11.13      24.05      -2.26
C      10.16      23.92      -1.24
C      10.39      23.05      -0.17
C      10.88      24.99      -3.40
H      10.53      17.39       5.65
H      12.85      20.19       3.34
H       8.77      19.28       2.22
H      13.54      22.01      -0.97
H      13.09      23.47      -2.94
H       9.24      24.50      -1.31
H       9.64      22.97       0.62
H       9.97      20.87       1.08
N      10.84      20.77       1.59
O       7.25      17.80       3.41
O       8.18      16.58       5.04
O      12.63      18.03       6.67
O      14.10      18.94       5.23
O      13.08      21.31       1.50
O      11.56      24.78      -4.48
O      10.03      25.91      -3.23
