72

N       6.56       7.46      14.65
N       7.43       6.26      12.08
N       3.68      10.42      19.64
N      12.35       4.86      16.07
H       6.70       8.23      17.90
N       4.00       8.22      13.48
N       4.90       7.07      10.89
H       8.87       6.92      17.01
H      10.38       4.73      12.45
H       9.31       4.45      10.00
H       2.30       8.63      17.12
H       6.21      10.43      17.40
H       1.81       9.55      19.36
H       5.56      11.29      19.62
H      11.10       7.57      14.47
H       9.21       3.80      15.47
H      13.17       6.70      15.55
H      11.35       3.08      16.44
H       4.99       6.69       7.58
H       2.79       7.97       8.46
H       1.18       9.96      13.04
H       2.28      10.27      15.47
H       9.16       5.99       8.32
H       9.55       5.16       6.03
H       5.73       3.55       5.81
H       5.19       4.32       8.09
H       0.35       7.04      11.06
H      -1.68       7.97       9.96
H       0.24      11.57       9.14
H       2.36      10.76      10.14
C       6.00       8.07      15.76
C       6.90       7.90      16.88
C       8.00       7.22      16.44
C       7.79       6.94      15.04
C       8.69       6.24      14.23
C       8.53       5.92      12.87
C       9.45       5.14      12.09
C       8.90       5.02      10.83
C       7.65       5.73      10.83
C       4.74       8.72      15.81
C       4.35       9.36      17.07
C       3.06       9.21      17.64
C       2.78       9.72      18.89
C       4.88      10.66      19.05
C       5.24      10.17      17.81
C       9.95       5.76      14.87
C      11.10       6.57      14.91
C      12.27       6.09      15.51
C      11.25       4.07      16.02
C      10.05       4.49      15.45
N       7.66       4.34       5.78
N      -0.81       9.79       9.47
C       5.51       6.55       9.77
C       4.71       6.89       8.61
C       3.60       7.56       9.05
C       3.71       7.66      10.48
C       2.78       8.30      11.31
C       2.93       8.60      12.68
C       2.07       9.47      13.43
C       2.63       9.62      14.67
C       3.83       8.82      14.70
C       6.75       5.86       9.72
C       7.12       5.27       8.43
C       8.38       5.43       7.81
C       8.59       4.98       6.52
C       6.47       4.11       6.39
C       6.17       4.54       7.67
C       1.54       8.82      10.67
C       0.38       8.04      10.62
C      -0.76       8.55      10.01
C       0.31      10.56       9.55
C       1.49      10.11      10.12
