72

N       1.84      10.47      22.50
N      -2.48       9.06      32.86
N      -3.52       7.35      23.66
N      -2.73       7.87      26.49
H       0.69      12.20      22.65
H      -1.10      11.15      24.02
H       1.06       7.43      23.78
H       2.87       8.66      22.60
H       0.00       9.80      26.57
H      -1.19       9.52      28.95
H      -5.56       6.81      30.70
H      -7.71       5.77      29.46
H      -1.19       7.41      30.20
H      -0.63       8.20      32.47
N      -5.34       6.87      27.37
H      -5.11       9.13      30.72
H      -4.41       9.81      33.00
N      -6.11       6.33      24.56
N      -0.32       3.99      28.41
N      -6.33       5.66      18.08
H       0.46       2.16      27.79
H      -8.23       3.15      26.55
H       0.91       7.06      27.65
H      -1.02       5.92      28.74
H      -9.09       4.79      24.42
H      -7.96       5.17      22.02
H      -3.63       7.97      20.39
H      -1.42       8.93      21.60
H      -7.72       7.15      20.78
H      -8.18       6.53      18.43
H      -4.39       4.92      17.95
H      -3.79       5.43      20.30
C       0.75      11.15      22.93
C      -0.27      10.55      23.67
C      -0.23       9.18      23.93
C       0.94       8.49      23.56
C       1.95       9.17      22.87
C      -1.44       8.48      24.45
C      -1.66       8.47      25.84
C      -0.87       9.19      26.80
C      -1.47       9.04      28.02
C      -2.63       8.19      27.82
C      -3.55       7.82      28.84
C      -4.81       7.17      28.61
C      -5.72       6.73      29.64
C      -6.82       6.19      29.00
C      -2.34       8.05      23.45
C      -3.21       8.20      30.22
C      -1.93       7.96      30.77
C      -1.62       8.39      32.05
C      -3.72       9.27      32.35
C      -4.11       8.88      31.08
C       0.60       3.24      27.74
C      -8.93       3.80      27.06
C      -8.73       5.19      27.09
C       0.86       5.97      27.67
C      -0.21       5.34      28.29
C      -7.46       5.79      26.58
C      -7.24       5.81      25.20
C      -8.14       5.28      24.21
C      -7.57       5.49      22.98
C      -6.31       6.16      23.21
C      -5.39       6.56      22.20
C      -4.14       7.21      22.44
C      -3.35       7.87      21.43
C      -2.22       8.37      22.05
C      -6.58       6.28      27.59
C      -5.72       6.29      20.79
C      -6.96       6.62      20.21
C      -7.22       6.29      18.88
C      -5.11       5.40      18.61
C      -4.78       5.69      19.93
