14

Cu       5.41      10.11      10.91
Cu       5.41      11.00       8.63
O       3.97      11.35      11.37
O       6.72       9.57       8.22
C       3.72       8.83       9.00
C       7.19      12.27      10.37
O       6.91       8.94      10.40
O       4.15      12.36       9.33
C       3.72      12.29      10.54
C       7.19       8.85       9.16
O       3.97       9.76       8.16
O       6.72      11.55      11.32
O       4.15       8.75      10.20
O       6.90      12.18       9.13
