10

Ag       6.58      -2.03       9.43
N       8.62      -1.97       8.60
N       9.09      -1.53       7.38
C       7.11      -4.88      11.10
C       3.49      -1.40       9.00
C       9.55      -2.86       9.02
N       6.61      -3.62      11.22
N       5.44      -3.79      11.98
N       4.45      -1.71       9.89
N       3.79      -2.31      10.94
