34

O       1.08       4.24       5.86
O      -1.03       7.90      -5.86
H      -0.21       9.41       1.31
H       0.26       2.73      -1.31
O       1.35       7.74      -5.86
O      -1.30       4.40       5.86
H       0.27       4.74      -5.56
H      -0.22       7.40       5.56
H      -0.25       8.97       3.68
H       0.30       3.17      -3.68
H      -0.14       8.70      -0.95
H       0.19       3.44       0.95
H      -0.06       8.04      -2.90
H       0.11       4.10       2.90
C       0.13       7.43      -5.43
C      -0.08       4.71       5.43
C      -0.04       5.65       4.31
C       0.09       6.49      -4.31
C      -0.16       7.91       3.48
C       0.21       4.23      -3.48
C      -0.15       7.02       4.55
C       0.20       5.12      -4.55
C       0.04       5.17       3.00
C       0.01       6.97      -3.00
C       0.01       6.05       1.89
C       0.04       6.09      -1.89
C      -0.09       7.44       2.16
C       0.14       4.70      -2.16
C       0.05       5.59       0.53
C      -0.00       6.55      -0.53
C      -0.09       7.92      -0.21
C       0.14       4.22       0.21
C      -0.14       8.35       1.11
C       0.18       3.79      -1.11
