34

O       2.30       1.67       5.86
O       4.92      -1.67      -5.86
H       3.35       3.34      -1.32
H       3.88      -3.34       1.32
H       3.73      -1.33       5.57
H       3.49       1.33      -5.57
H       3.37       2.90      -3.69
H       3.85      -2.90       3.69
H       3.40       2.63       0.94
H       3.83      -2.63      -0.94
H       3.45       1.97       2.89
H       3.78      -1.97      -2.89
C       3.52       1.36       5.43
C       3.71      -1.36      -5.43
C       3.64      -0.42      -4.31
C       3.58       0.42       4.31
C       3.46       1.84      -3.48
C       3.76      -1.84       3.48
C       3.53       0.95      -4.55
C       3.69      -0.95       4.55
C       3.69      -0.91      -3.00
C       3.53       0.91       3.00
C       3.62      -0.03      -1.89
C       3.61       0.03       1.89
C       3.50       1.36      -2.16
C       3.72      -1.36       2.16
C       3.65      -0.48      -0.53
C       3.57       0.48       0.53
C       3.46       1.85       0.20
C       3.76      -1.85      -0.20
C       3.43       2.28      -1.11
C       3.79      -2.28       1.11
O       2.54      -1.83      -5.86
O       4.68       1.83       5.86
