26

C      -1.28       2.49      10.95
H       1.24       2.68       4.29
H       1.52       1.09       8.26
H       1.18       5.37       7.65
H       1.92       1.74      10.26
H       1.40       3.04      11.39
N      -0.13       1.98      10.44
N      -0.36       0.73       9.93
H      -1.35       3.47      11.41
N      -2.27       1.61      10.79
H      -2.18      -0.35       9.85
O       1.00       6.47       5.49
O       0.88       5.05       3.71
O       0.86       0.20       4.51
O       1.68      -0.62       6.41
O       1.34       3.61       9.47
C       1.21       4.15       5.87
C       1.28       2.85       5.36
C       1.40       1.77       6.23
C       1.45       1.97       7.62
C       1.36       3.27       8.12
C       1.25       4.36       7.26
C       1.02       5.31       4.96
C       1.34       0.38       5.69
C       1.21       2.56      10.42
C      -1.66       0.55      10.15
