144

Cr       5.45       1.96       9.49
Cr       9.22       8.55       9.29
Cr      12.67       8.60       9.36
Cr      11.01       1.21       0.15
Cr       9.23       4.13      18.74
Cr      12.68       4.12      18.62
H       5.99       3.79       6.25
H      13.66       6.56      14.92
H       2.89       4.79      12.45
H       8.27       4.04      12.90
H       4.34       2.32      15.58
H      16.09       9.35      14.90
H       4.87       8.42       0.09
H       6.95       8.37      12.74
H       5.35       9.32      12.51
H       5.54       7.76       2.38
H       9.13       5.54       3.37
H       8.18       3.94       5.14
H      10.24       3.44       4.52
H      10.77       1.31       6.69
H      13.47       8.82      18.36
H       7.37       9.41       3.51
H      13.75       6.64      12.55
H      13.80       8.80      13.17
H       8.45       4.17      15.28
H       6.60       4.40      15.42
H       4.64       2.35      13.15
H      11.80       8.61       1.33
H       5.49       1.25       5.27
H      11.28       1.97       4.32
H       1.44       0.03       5.80
H      13.12       4.48       3.47
H       3.72       4.89       5.95
H      12.96       4.38       5.86
H       8.87       6.95      12.76
C       3.18       1.24       7.46
C       9.97       6.02       3.84
C       9.95       6.14       5.21
C      11.12       7.09       7.27
C       6.08       5.78       7.05
C       6.58       4.69       6.33
C       7.84       4.76       5.72
C       8.62       5.93       5.84
C      11.07       6.77       5.84
C       8.27       1.77       3.37
C       9.21       1.54       4.36
C      13.18       7.85       2.82
C       8.85       1.27       5.66
C       6.53       1.37       5.02
C       6.91       1.61       3.68
C       7.13       1.20       7.42
C      10.37       2.37       4.76
C      10.04       2.00       6.20
C       7.51       1.33       6.03
C       2.83       1.77       3.31
C       3.37       2.81       4.07
C       3.37       2.78       5.48
C      11.05       6.50       3.07
C       2.09       0.77       5.36
C       2.37       0.65       4.01
C       3.06       4.24       3.98
C       2.97       4.23       5.48
C       3.16       1.04      11.34
C       2.72       1.73       6.15
C      10.92       5.80      15.18
C      11.95       5.32      14.37
C      11.93       5.47      13.00
C       9.73       6.46      13.19
C      12.09       7.35       5.05
C       9.76       6.29      14.58
C      13.42       5.60      14.43
C      13.41       5.66      12.92
C      10.87       6.16      12.41
C       7.95       1.37      15.74
C      11.04       6.87      11.16
C       7.28       2.36      15.01
C       7.19       2.30      13.65
C       8.10       0.09      13.68
C       8.20       0.15      15.09
C      12.09       7.24       3.66
C       7.44       3.86      14.95
C       7.34       3.76      13.45
C       7.72       1.24      12.94
C       2.43       1.31      15.48
C       1.42       0.88      14.62
C       1.60       0.87      13.25
C       7.50       1.24      11.51
C       3.73       1.93      13.55
C       3.58       1.89      14.94
C       6.10       9.22      14.58
C       7.96       7.06       6.28
C       6.30       9.20      13.08
C       2.78       1.34      12.70
C       8.75       2.16       2.07
C      11.15       5.96       1.74
C       2.25       1.97       1.97
C       8.58       1.76      17.01
C      10.99       5.52      16.60
C      15.14       8.30       0.86
C       2.06       1.55      16.86
C       4.49       7.92       2.15
C       6.74       7.00       6.96
C      14.55       7.70       3.14
C      12.84       8.42       1.58
C      13.80       8.58       0.59
O       6.86       2.33       8.03
O      12.31       5.69       1.27
O       2.33       3.09       1.33
O       4.12       1.89       8.06
O       1.29       0.69      17.38
O       9.57       1.11      17.56
O       8.24       2.93      17.35
O       9.95       5.13      17.23
O      12.16       5.33      17.02
O       2.20       2.75      17.30
O      10.96       3.12      18.76
O      10.00       7.37      10.64
O       2.86       0.05       7.82
O      10.05       7.49       7.85
O      12.27       7.30       7.77
O       7.82       0.29       8.05
O       6.81       2.21      11.04
O       4.07       1.78      10.85
O       8.23       9.55      10.83
O      12.22       7.18      10.79
O       7.78       0.17      10.84
O       5.50      -0.04       9.38
O       1.44       1.05       1.63
O       9.70       1.45       1.59
O       8.39       3.29       1.60
O      10.08       5.47       1.26
F      13.04       8.13       5.62
F       6.19       4.35      12.96
F       6.75       8.20      15.24
F      14.96       7.28       4.35
F       8.58       8.21       5.98
F       4.95       5.68       7.78
F       5.96       1.73       2.72
F       9.72       3.09       6.99
F       4.16       4.91       3.49
F       8.72       6.69      15.33
F       3.12       4.55      14.93
F       6.18       8.10       7.51
F      14.05       8.71      15.81
