292

Co       9.42       8.18      16.56
Co       7.97       5.87      18.43
Co       8.50       8.79       5.60
Co       6.40       7.28       3.52
Co       3.67      14.92      16.28
Co      15.66      13.77      14.32
Co       0.24       1.57       5.92
Co      14.53      14.65       8.01
H       9.94       9.84      18.51
H      10.20       9.53       3.76
H       3.70       0.12      14.31
H       0.56       3.35       7.79
H       1.08       3.00      13.14
H       3.26       1.03       9.18
H      14.04       4.05       9.87
H      14.17       4.44      11.60
H      12.67       2.10      10.30
H      12.04       3.38      11.39
H      13.09       2.05      12.04
H       6.33      14.66      10.55
H       5.86      14.30      12.22
H       5.77       1.86      11.27
H       6.47       0.43      12.11
H       5.32       1.51      12.98
H       4.85       3.35       2.78
H      14.60       4.37       1.53
H       2.53       0.54       3.25
H       4.23       1.03       3.17
H       2.38       0.51       0.76
H       5.34      14.39       1.36
H       4.10       1.06       0.65
H       0.98       6.51       0.58
H       2.61       7.12       0.95
H      14.66       6.89       2.92
H       0.95       8.40       2.22
H       1.90       7.43       3.39
H      11.34       2.25       4.36
H       9.19       5.82       7.05
H      10.06       5.24       2.40
H       9.85       3.47       2.28
H      12.52       4.88       2.91
H      11.97       4.46       1.25
H      12.28       3.15       2.43
H      10.59       5.23       8.93
H      11.59       3.78       8.94
H       8.50       3.96       9.12
H       9.65       3.44      10.41
H       9.38       2.39       8.97
H      13.46      10.19       9.64
H       8.67      11.23       8.92
H      10.98       7.37      10.07
H      12.53       7.99      10.70
H      11.97       7.19       7.77
H      12.97       6.31       8.98
H      13.51       7.92       8.37
H       9.11      13.52       8.65
H      10.72      14.02       8.09
H       9.78      13.79      11.01
H       8.44       0.36      10.09
H      11.47      14.23      10.52
H       2.98      13.11       4.02
H       4.75       9.94       7.40
H       5.60      10.92       2.72
H       4.38      12.16       2.33
H       3.74       9.18       2.84
H       3.91       9.96       1.22
H       2.57      10.47       2.32
H       3.04      10.85       8.99
H       2.23      12.39       8.66
H       5.23      11.99       9.29
H       3.97      12.73      10.36
H       4.48      13.57       8.85
H       5.06      10.74      14.03
H       4.35       9.08      18.66
H       7.01       7.84      14.58
H       5.98       8.66      13.42
H       5.29       6.32      13.59
H       3.98       7.37      14.25
H       5.07       6.45      15.37
H       1.90       9.76      18.20
H       1.58      11.16      17.17
H       3.16      12.51      18.75
H       3.10      11.07      19.85
H       1.59      11.96      19.44
H       7.24      14.15      19.80
H       4.48       4.03      19.79
H       8.41       1.33      18.78
H       9.53      14.63      19.23
H       8.46       1.98      21.22
H       9.53       0.57      20.86
H       7.93       0.30      21.66
H       2.52       2.91      21.41
H       1.75       1.49      20.65
H       2.11       4.30      19.41
H       0.58       3.50      19.91
H       1.50       2.86      18.50
H      13.04       3.15      14.01
H      11.46       3.85      18.66
H      10.08       5.44      14.41
H      10.80       4.23      13.33
H      12.12       6.87      14.25
H      11.49       6.45      12.60
H      12.95       5.61      13.26
H      12.90       2.07      19.44
H      13.98       1.19      18.35
H      10.92       0.81      18.56
H      13.83      14.65      19.20
H      13.64      14.85      17.42
H      11.65       8.84      12.81
H      10.63      13.65      13.45
H      14.60      11.17      12.62
H      13.96       9.63      12.01
H      14.38      10.26      15.01
H       1.07       9.30      13.95
H      13.83       8.69      14.30
H       8.31      13.22      13.27
H       7.89      11.75      14.18
H       7.95      12.08      11.11
H       6.51      11.88      12.17
H       7.65      10.50      11.95
H       7.92      10.83       0.87
H      11.22       7.62      21.31
H       7.88      10.44      19.34
H       7.83      11.69      20.60
H       6.06       9.17      20.56
H       5.58      10.82      20.00
H       5.94      10.54      21.74
H      11.94       7.05       1.30
H      10.99       7.53       2.72
H      13.14       9.12       1.20
H      13.04       8.72       2.96
H      11.97       9.98       2.28
C       9.30       8.20      19.51
C       6.98       3.54      18.86
C      10.65       5.80      16.98
C       9.49       9.54      14.37
C       6.57       8.01      17.50
C       8.63       8.90       2.63
C       4.24       6.00       2.94
C       6.09       9.88       5.07
C       9.65       8.88       7.90
C       8.62       6.05       4.43
C       1.92       0.43      13.42
C      13.22      13.06      13.91
C      14.29       1.53      15.74
C       4.93      14.93      18.52
C       3.14      12.11      15.28
C       0.61       1.62       8.83
C      13.07      12.62       8.57
C       2.68      13.99       6.53
C       0.62       2.59       3.59
C      11.90       2.01       6.98
C       1.52       2.10       9.88
C       1.00       2.79      11.00
C       1.53       2.54      12.27
C       2.38       1.44      12.45
C       3.15       1.03      11.34
C       2.74       1.41      10.05
C      14.14       3.60      10.88
C       4.40       0.19      11.51
C      12.92       2.73      11.17
C       5.56       1.06      12.00
C       1.49       2.95       2.47
C       2.84       2.58       2.56
C       3.82       3.58       2.55
C       3.43       4.92       2.36
C       2.15       5.18       1.82
C       1.19       4.15       1.82
C       3.25       1.12       2.65
C       1.75       6.57       1.39
C       3.36       0.50       1.27
C       1.18       7.37       2.56
C       9.56       5.08       5.05
C      10.29       4.13       4.29
C      10.92       3.06       4.94
C      11.05       3.05       6.35
C      10.46       4.09       7.10
C       9.69       5.07       6.45
C      10.44       4.27       2.78
C      10.61       4.17       8.61
C      11.89       4.18       2.32
C       9.46       3.44       9.32
C      10.16       9.68       9.01
C      11.46       9.39       9.47
C      12.41      10.42       9.46
C      12.04      11.71       9.07
C      10.66      12.05       9.02
C       9.72      11.01       9.08
C      11.87       7.98       9.81
C      10.19      13.49       8.91
C      12.63       7.32       8.66
C      10.40      14.24      10.22
C       4.80      10.54       5.33
C       4.24      11.39       4.36
C       3.38      12.43       4.76
C       3.14      12.66       6.12
C       3.55      11.70       7.07
C       4.36      10.63       6.66
C       4.54      11.20       2.88
C       3.19      11.85       8.54
C       3.63      10.14       2.28
C       4.29      12.58       9.30
C       5.53       8.89      16.86
C       5.58       9.22      15.48
C       4.91      10.39      15.05
C       3.93      10.99      15.85
C       3.64      10.42      17.12
C       4.51       9.44      17.66
C       5.98       8.20      14.44
C       2.34      10.71      17.84
C       5.02       7.01      14.42
C       2.57      11.62      19.04
C       6.02       2.56      19.40
C       6.38       1.21      19.56
C       5.36       0.26      19.77
C       4.02       0.66      19.60
C       3.71       2.01      19.87
C       4.72       2.97      19.70
C       7.82       0.76      19.53
C       2.37       2.39      20.44
C       8.47       0.91      20.90
C       1.60       3.32      19.50
C      11.37       4.55      16.62
C      11.71       4.26      15.28
C      12.66       3.26      15.01
C      13.14       2.43      16.03
C      12.65       2.60      17.35
C      11.79       3.68      17.64
C      11.05       4.97      14.12
C      12.95       1.59      18.44
C      11.96       6.04      13.52
C      11.95       0.43      18.40
C      12.19      12.16      13.38
C      12.49      10.81      13.05
C      11.44       9.89      12.94
C      10.14      10.29      13.30
C       9.82      11.65      13.19
C      10.86      12.59      13.32
C      13.92      10.33      12.87
C       8.38      12.11      13.25
C      14.43       9.61      14.11
C       7.58      11.61      12.04
C       9.51       8.84      20.83
C       8.63       9.84      21.33
C       8.60      10.09       0.47
C       9.29       9.25       1.36
C      10.34       8.45       0.86
C      10.45       8.27      21.70
C       7.68      10.61      20.42
C      11.42       7.92       1.77
C       6.23      10.26      20.70
C      12.45       9.00       2.07
O       9.52       9.99      15.57
O       7.53       7.48      16.82
O       9.27       6.90      19.48
O       9.46       8.24      14.40
O       6.32       7.28      18.55
O       7.76       4.19      19.64
O       6.73       4.23      17.79
O      11.18       6.95      16.68
O       9.35       5.86      16.90
O       9.59       8.89      18.42
O      10.21       9.00       6.75
O       7.97       6.88       5.17
O       7.33       8.75       2.61
O       8.38       8.68       7.74
O       7.95       5.79       3.35
O       4.83       6.87       2.21
O       4.88       5.84       4.06
O       7.18      10.46       5.48
O       6.20       8.59       5.11
O       9.27       9.12       3.78
O       5.44      14.87      17.34
O       2.74      13.11      15.99
O       2.50      14.66      13.08
O       2.00       0.04      18.43
O       2.38      11.94      14.24
O      13.97      13.73      13.11
O      13.86      12.79      15.00
O       1.07       1.89      16.10
O      14.17       0.24      15.82
O       2.70       0.04      14.41
O       0.76       3.18       4.73
O      12.68       1.26       6.28
O      14.41       0.48       9.04
O       0.22       1.37       3.78
O      11.56       1.41       8.08
O      13.97      13.13       9.32
O      12.97      13.27       7.45
O       1.75       0.08       6.19
O      15.83      14.28       6.46
O       0.39       2.35       7.75
