82

H       8.75       0.22      23.19
H       8.56      -1.87      24.44
H      11.80       3.92      23.22
H       9.33      -4.24      24.12
H       6.31      -6.44      26.26
H       8.70      -3.53      28.33
H       9.19       4.32      22.91
H       7.64       2.99      19.12
H      10.39       0.51      21.28
H      14.12      -0.22      28.02
H      14.31       1.87      26.76
H      11.07      -3.92      27.99
H      13.54       4.24      27.09
H      16.57       6.44      24.95
H      14.17       3.53      22.87
H      13.68      -4.32      28.30
H      15.24      -2.99      32.09
H      12.48      -0.51      29.92
C       9.50      -0.03      23.94
C       9.39      -1.20      24.64
C      10.35      -1.56      25.64
C      11.49       0.62      25.24
C      10.56       0.89      24.18
C      10.71       2.09      23.44
C      11.70       3.01      23.80
C      10.26      -2.77      26.37
C       9.15      -3.74      26.23
C       8.79      -4.42      25.05
C       7.77      -5.38      25.06
C       7.09      -5.68      26.25
C       7.44      -5.01      27.42
C       8.45      -4.04      27.41
C       9.88       2.38      22.25
C       9.17       3.57      22.12
C       8.36       3.79      20.99
C       8.28       2.83      19.98
C       9.03       1.66      20.08
C       9.82       1.44      21.22
C       8.96       0.61      19.03
C       6.80      -5.33      28.71
C       7.47       4.98      20.92
C       7.41      -6.14      23.82
C      13.37       0.03      27.27
C      13.48       1.20      26.57
C      12.52       1.56      25.57
C      11.39      -0.62      25.96
C      12.31      -0.89      27.02
C      12.16      -2.09      27.76
C      11.17      -3.01      27.40
C      12.61       2.77      24.84
C      13.72       3.74      24.97
C      14.08       4.42      26.15
C      15.10       5.38      26.14
C      15.78       5.68      24.95
C      15.43       5.01      23.78
C      14.42       4.04      23.80
C      12.99      -2.38      28.95
C      13.71      -3.57      29.09
C      14.51      -3.79      30.21
C      14.59      -2.83      31.23
C      13.84      -1.66      31.12
C      13.05      -1.44      29.99
C      13.92      -0.61      32.17
C      16.08       5.33      22.50
C      15.40      -4.98      30.29
C      15.46       6.14      27.38
O       7.09      -4.63      29.76
O       5.97      -6.30      28.81
O       6.55       4.94      20.03
O       7.66       5.93      21.74
O       9.66      -0.44      19.25
O       8.20       0.81      18.03
O       6.40      -6.96      23.90
O       8.05      -6.01      22.74
O      15.78       4.63      21.45
O      16.90       6.30      22.40
O      16.32      -4.94      31.18
O      15.21      -5.93      29.46
O      13.21       0.44      31.95
O      14.67      -0.81      33.18
O      16.47       6.96      27.30
O      14.82       6.01      28.46
