258

Cd       5.10       9.16       0.30
Cd       6.49      12.72       1.86
Cd       7.47      14.36       5.18
Cd       8.52      15.82       8.55
Cd       4.71       2.95      10.09
Cd      18.15      13.45      20.52
Cd      16.76       9.90      18.96
Cd      15.78       8.25      15.64
Cd      14.73       6.79      12.27
Cd      18.54      19.66      10.73
H       7.37      12.70      12.88
H       9.44      16.27      11.88
H       8.53      16.84      14.16
H       9.06      17.13      16.59
H       9.89      12.94      16.94
H       9.36      12.63      14.51
H      14.79       9.80       1.25
H      16.11      13.61       2.60
H      13.95      12.88       4.25
H      11.55      13.60       4.54
H      10.65      12.26       0.57
H      13.05      11.59       0.23
H       6.03       9.38       3.53
H       6.64      11.51       7.17
H       7.24       9.33       7.96
H       6.69       7.23       9.21
H       4.02       6.04       6.10
H       4.50       8.15       4.84
H       4.11       2.67       6.85
H       8.15      17.30       3.21
H       2.11       3.10       2.91
H       2.47       5.25       1.68
H       6.12       5.91       3.83
H       5.78       3.75       5.08
H      16.95      14.97       5.77
H      18.06      16.49       9.58
H      16.20      18.02       8.99
H      13.80      18.63       9.43
H      12.50      14.98       7.59
H      14.90      14.35       7.13
H       6.18       5.71      18.64
H      11.03      18.12      19.36
H       4.85       5.11      16.73
H       4.58       4.60      14.29
H      11.70      17.49      14.79
H      12.04      17.99      17.22
H      15.88       9.91       7.94
H      13.81       6.35       8.94
H      14.72       5.77       6.66
H      14.19       5.48       4.23
H      13.36       9.67       3.88
H      13.89       9.98       6.31
H       8.46      12.81      19.57
H       7.14       9.00      18.22
H       9.30       9.73      16.58
H      11.70       9.01      16.29
H      12.60      10.35      20.26
H      10.20      11.02      20.59
H      17.22      13.23      17.30
H      16.61      11.10      13.66
H      16.01      13.28      12.86
H      16.56      15.38      11.61
H      19.23      16.57      14.73
H      18.75      14.46      15.98
H      19.14      19.94      13.98
H      15.11       5.31      17.62
H      21.14      19.51      17.91
H      20.79      17.36      19.14
H      17.13      16.71      16.99
H      17.47      18.87      15.74
H       6.30       7.65      15.06
H       5.19       6.12      11.25
H       7.05       4.59      11.83
H       9.45       3.98      11.40
H      10.75       7.63      13.23
H       8.35       8.26      13.69
H      17.07      16.90       2.18
H      12.22       4.49       1.47
H      18.40      17.51       4.09
H      18.67      18.01       6.53
H      11.55       5.12       6.04
H      11.21       4.62       3.60
C       7.80      13.50      12.29
C       8.86      15.35      11.79
C       8.88      14.71      14.22
C       8.81      15.99      14.78
C       9.12      16.15      16.13
C       9.49      15.06      16.92
C       9.57      13.78      16.33
C       9.26      13.61      14.98
C       9.81      15.25      18.37
C      15.44      10.65       1.49
C      16.11      12.60       2.21
C      13.62      12.21       2.22
C      13.23      12.77       3.44
C      11.90      13.17       3.60
C      10.98      12.99       2.56
C      11.39      12.40       1.35
C      12.71      12.02       1.17
C       9.53      13.38       2.77
C       6.21      10.20       4.23
C       6.53      11.27       6.11
C       5.89       8.86       6.34
C       6.51       8.62       7.57
C       6.22       7.45       8.26
C       5.32       6.51       7.73
C       4.71       6.78       6.50
C       4.98       7.95       5.80
C       5.03       5.22       8.44
C       3.83       1.88       6.14
C       8.32      17.48       4.26
C       3.93       3.31       4.06
C       3.00       3.70       3.09
C       3.20       4.90       2.40
C       4.32       5.70       2.68
C       5.25       5.27       3.64
C       5.07       4.08       4.33
C       4.52       7.00       1.96
C      17.53      15.22       6.64
C      18.12      16.02       8.59
C      15.67      16.16       8.04
C      15.39      17.36       8.70
C      14.06      17.69       8.93
C      13.02      16.84       8.53
C      13.32      15.64       7.87
C      14.65      15.29       7.62
C      11.58      17.21       8.80
C      11.23      21.35      19.15
C      11.15      19.19      19.51
C      10.96      19.87      17.11
C      10.28      20.78      16.30
C      10.14      20.50      14.94
C      10.65      19.32      14.40
C      11.32      18.41      15.23
C      11.50      18.69      16.58
C      10.47      19.01      12.94
C      15.45       9.11       8.53
C      14.39       7.26       9.03
C      14.37       7.90       6.61
C      14.44       6.62       6.04
C      14.13       6.46       4.69
C      13.76       7.56       3.90
C      13.68       8.83       4.49
C      13.99       9.00       5.84
C      13.44       7.36       2.45
C       7.81      11.97      19.33
C       7.14      10.01      18.62
C       9.63      10.40      18.61
C      10.02       9.84      17.39
C      11.35       9.45      17.22
C      12.27       9.63      18.26
C      11.86      10.21      19.47
C      10.54      10.59      19.65
C      13.72       9.23      18.05
C      17.04      12.42      16.59
C      16.72      11.34      14.71
C      17.36      13.75      14.49
C      16.74      13.99      13.25
C      17.04      15.16      12.56
C      17.93      16.10      13.10
C      18.54      15.83      14.33
C      18.27      14.66      15.02
C      18.22      17.39      12.38
C      19.42      20.73      14.68
C      14.93       5.13      16.56
C      19.32      19.30      16.76
C      20.25      18.91      17.73
C      20.05      17.71      18.42
C      18.93      16.91      18.14
C      18.00      17.34      17.18
C      18.18      18.53      16.49
C      18.73      15.62      18.87
C       5.72       7.39      14.18
C       5.13       6.59      12.23
C       7.58       6.46      12.78
C       7.86       5.25      12.12
C       9.19       4.92      11.89
C      10.23       5.77      12.30
C       9.93       6.98      12.95
C       8.60       7.32      13.20
C      11.67       5.40      12.02
C      12.02       1.27       1.67
C      12.10       3.42       1.31
C      12.29       2.75       3.71
C      12.97       1.83       4.52
C      13.11       2.11       5.88
C      12.60       3.29       6.42
C      11.93       4.20       5.60
C      11.75       3.92       4.24
C      12.79       3.61       7.89
N       7.68      13.66      10.99
N       8.35      14.83      10.68
N       8.54      14.53      12.84
N       3.70      10.70       1.37
N       4.13      11.93       1.82
N      14.99      11.83       2.02
N       6.51      11.45       3.94
N       6.71      12.12       5.12
N       6.21      10.04       5.60
N       8.20      16.60       5.23
N       8.53      17.22       6.42
N       3.71       2.09       4.78
N       6.16      15.57       7.99
N       5.79      15.06       6.77
N      17.03      15.81       7.78
N      11.36      21.17      20.45
N      11.31      19.81      20.67
N      11.10      20.12      18.51
N      15.58       8.95       9.83
N      14.90       7.78      10.14
N      14.71       8.08       7.98
N      19.55      11.91      19.45
N      19.12      10.68      19.00
N       8.26      10.78      18.80
N      16.74      11.16      16.88
N      16.55      10.49      15.70
N      17.04      12.57      15.22
N      15.05       6.01      15.59
N      14.72       5.39      14.40
N      19.54      20.52      16.04
N      17.09       7.04      12.83
N      17.46       7.55      14.06
N       6.22       6.80      13.05
N      11.89       1.44       0.37
N      11.94       2.80       0.16
N      12.15       2.49       2.31
Cl       7.23      10.46       0.63
Cl       5.57      14.81       3.30
Cl       8.93      13.64       7.24
Cl       7.74      18.01       9.79
Cl      16.02      12.16      20.20
Cl      17.68       7.80      17.52
Cl      14.32       8.97      13.58
Cl      15.51       4.60      11.03
O      10.01      14.19      19.08
O       9.86      16.42      18.86
O       8.73      13.10       1.83
O       9.27      13.96       3.87
O       5.58       5.06       9.59
O       4.29       4.36       7.89
O       5.51       7.73       2.29
O       3.71       7.29       1.02
O      10.75      16.26       8.78
O      11.37      18.45       9.01
O      10.51      17.81      12.55
O      10.27      20.04      12.19
O      13.24       8.42       1.75
O      13.40       6.20       1.96
O      14.52       9.51      19.00
O      13.98       8.66      16.95
O      17.67      17.55      11.23
O      18.96      18.25      12.94
O      17.74      14.88      18.53
O      19.54      15.32      19.81
O      12.50       6.35      12.05
O      11.88       4.16      11.81
O      12.74       4.80       8.27
O      12.98       2.57       8.64
