13

H       3.20       3.63      11.49
H       4.46       3.02      12.55
H       2.95       1.95      14.07
H       2.10       3.01      15.23
C       3.77       3.87      12.40
O       5.38       5.10      11.12
O       4.53       6.10      12.92
O       4.91       4.11      15.33
O       4.48       2.12      16.25
C       4.61       5.10      12.12
N       2.88       4.03      13.57
C       4.21       3.05      15.44
C       2.96       2.94      14.56
