22

Cr      10.84       6.45       7.96
Cr       9.19       3.50       8.48
Cr       7.46       6.46       8.46
C      11.62       4.27       9.98
C       7.26       4.48      10.65
C       9.52       8.22       9.93
C      10.50       4.14       6.12
C       6.64       4.10       6.88
C       8.97       7.29       6.05
O      10.60       7.93       9.38
O       7.66       3.48       7.30
O       6.33       5.27       7.22
O       8.00       7.45       6.89
O       9.17       5.47       8.30
O      11.64       5.35       9.35
O      10.78       3.35       9.77
O       8.06       3.73      10.03
O       6.77       5.54      10.16
O       8.41       7.70       9.61
O      10.16       7.66       6.44
O      11.23       5.11       6.62
O      10.34       3.08       6.83
