22

Cr       0.91       0.55       0.48
Cr       4.31       0.57       0.11
Cr       2.57       3.53       0.13
C       2.55      -0.55      -1.70
C       4.51       2.81      -1.99
C       0.06       2.66      -1.43
C       2.96      -0.95       2.27
C       4.98       3.06       1.79
C       0.50       2.88       2.31
O      -0.20       1.52      -0.95
O       1.53      -0.64      -0.91
O       3.72      -0.86      -1.25
O       4.71       1.71      -1.40
O       3.77       3.73      -1.52
O       1.08       3.33      -1.09
O       0.13       1.69       2.01
O       1.84      -0.48       1.84
O       4.05      -0.69       1.71
O       5.02       1.87       1.35
O       4.10       3.90       1.44
O       1.39       3.49       1.65
O       2.60       1.55       0.24
