560

H      41.79       0.45       1.31
H       1.10       1.33      43.39
H       1.18      41.88      43.35
H      41.63      42.20      42.74
H      43.52      41.03       4.20
H      43.40       1.29      38.84
H       1.22       3.43      41.48
H       1.96      40.67       1.72
H      41.98      43.62       4.66
H      40.81      43.34      40.27
H      24.27      43.58      23.35
H      20.89      42.69      21.36
H      20.81       2.13      21.31
H      24.44       1.82      20.71
H      22.54       2.99      26.24
H      22.68      42.73      16.80
H      20.78      40.59      19.45
H      20.02       3.35      23.75
H      24.09       0.42      26.71
H      25.24       0.69      18.23
H      10.87      30.92      12.34
H       9.63      34.33      10.45
H      13.03      34.65      10.22
H      12.88      30.89       9.58
H      14.44      32.89      14.98
H       9.33      32.43       5.93
H       7.47      34.51       8.80
H      14.34      35.50      12.60
H      12.06      31.07      15.58
H      11.52      29.94       7.27
H      11.10      13.11      34.37
H      12.37       9.70      32.49
H       8.98       9.36      32.25
H       9.11      13.13      31.60
H       7.54      11.13      37.00
H      12.68      11.60      27.97
H      14.53       9.53      30.84
H       7.66       8.51      34.62
H       9.91      12.97      37.61
H      10.48      14.11      29.30
H      33.64      12.99      31.77
H      34.80       9.69      33.61
H      31.19       9.46      33.94
H      31.39      12.94      34.62
H      29.99      11.27      29.10
H      34.98      11.41      38.22
H      36.93       9.49      35.17
H      29.86       8.64      31.61
H      32.57      12.80      28.48
H      32.63      13.76      37.01
H      32.43      31.05       9.74
H      31.27      34.34      11.58
H      34.89      34.57      11.91
H      34.69      31.09      12.59
H      36.08      32.77       7.06
H      31.09      32.62      16.19
H      29.15      34.53      13.14
H      36.22      35.39       9.58
H      33.50      31.24       6.44
H      33.45      30.23      14.97
H      20.03      22.11      23.33
H      23.35      23.62      21.59
H      23.84      20.19      21.12
H      20.19      20.19      20.42
H      22.03      18.44      25.78
H      21.54      24.05      17.04
H      23.49      25.83      20.13
H      24.72      18.77      23.39
H      20.21      20.82      26.52
H      19.23      21.58      18.16
H       1.96      21.94       1.30
H      42.71      20.41      43.64
H      42.21      23.83      43.16
H       1.79      23.85      42.46
H      44.01      25.61       3.73
H       0.46      19.98      39.08
H      42.57      18.20      42.17
H      41.33      25.26       1.36
H       1.78      23.24       4.48
H       2.76      22.46      40.20
H      35.18      36.86       5.47
H      38.46      39.26       8.08
H      37.26      37.46       9.10
H      40.89      42.02       6.03
H      38.56      41.69       2.53
H      37.18      40.07       3.64
H      30.87       7.19      27.49
H      27.62       4.77      30.12
H      28.83       6.57      31.13
H      25.19       2.00      28.08
H      27.47       2.38      24.55
H      28.85       4.00      25.65
H      18.52      24.02      16.24
H      14.92      26.05      18.74
H      16.27      24.37      19.80
H      12.66      29.03      16.80
H      14.90      28.61      13.25
H      16.21      26.92      14.31
H       3.49      20.05      38.28
H       7.07      17.99      40.78
H       5.71      19.65      41.84
H       9.30      14.98      38.84
H       7.15      15.51      35.25
H       5.84      17.20      36.31
H      30.46      36.14      17.13
H      27.02      38.46      14.67
H      28.06      36.55      13.69
H      25.62      42.08      16.25
H      27.73      41.50      19.85
H      28.62      39.46      18.97
H      35.63       7.90      39.17
H      39.04       5.55      36.69
H      38.00       7.47      35.71
H      40.45       1.94      38.28
H      38.36       2.54      41.90
H      37.47       4.58      41.01
H       3.77      23.80       5.74
H       6.13      27.20       3.26
H       4.40      25.96       2.17
H       9.11      29.36       5.26
H       8.45      27.25       8.85
H       6.75      25.97       7.75
H      18.21      20.26      27.77
H      15.90      16.81      25.31
H      17.62      18.06      24.22
H      12.90      14.66      27.30
H      13.54      16.78      30.89
H      15.25      18.06      29.79
H       8.22       7.52      38.84
H       5.81       4.47      35.98
H       7.21       6.14      34.98
H       2.84       2.10      37.79
H       3.78       3.60      41.62
H       5.58       4.85      40.66
H      13.77      36.51      16.81
H      16.20      39.54      13.94
H      14.80      37.87      12.95
H      19.16      41.92      15.75
H      18.22      40.42      19.58
H      16.41      39.17      18.62
H      25.89      19.60      27.64
H      28.61      16.64      24.97
H      26.82      17.83      23.93
H      31.25      14.10      27.04
H      30.56      16.12      30.69
H      29.03      17.57      29.55
H      40.16      24.42       5.60
H      37.43      27.38       2.94
H      39.22      26.19       1.89
H      34.80      29.93       5.01
H      35.50      27.91       8.65
H      37.02      26.45       7.52
H      13.66       8.33      26.77
H      16.06       5.27      29.64
H      14.80       7.05      30.63
H      18.74       2.62      27.84
H      17.64       3.89      23.97
H      16.00       5.34      24.94
H       8.33      35.70       4.73
H       5.94      38.76       7.60
H       7.21      36.99       8.59
H       3.25      41.40       5.80
H       4.34      40.13       1.93
H       5.99      38.68       2.90
H      40.95      19.44      38.16
H      38.74      15.91      40.61
H      40.63      17.00      41.59
H      35.25      14.29      38.96
H      35.69      16.54      35.42
H      37.66      17.54      36.33
H      25.11      24.61      16.10
H      27.34      28.10      18.58
H      25.46      27.01      19.56
H      30.83      29.73      16.92
H      30.37      27.52      13.36
H      28.40      26.51      14.28
C      43.57      43.70       0.50
C      42.60      43.93       1.51
C      42.73      43.34       2.79
C      43.85      42.52       3.07
C       0.77      42.30       2.07
C       0.61      42.87       0.79
C      43.39       0.20      43.29
C      42.27      43.97      42.48
C      42.13       0.49      41.20
C      43.14       1.35      40.71
C       0.18       1.66      41.52
C       0.29       1.09      42.80
C       1.17       2.51      41.09
C       1.83      41.45       2.32
C      41.71      43.51       3.71
C      41.01       0.23      40.42
C      22.50       0.32      22.55
C      23.46       0.10      23.55
C      23.33       0.68      24.83
C      22.21       1.51      25.11
C      21.22       1.72      24.11
C      21.38       1.15      22.83
C      22.68      43.82      21.26
C      23.80       0.05      20.45
C      23.95      43.54      19.17
C      22.94      42.67      18.68
C      21.82      42.36      19.48
C      21.70      42.93      20.77
C      20.83      41.51      19.05
C      20.15       2.57      24.35
C      24.35       0.51      25.75
C      25.06      43.80      18.39
C      11.47      32.78      11.53
C      11.40      31.78      12.52
C      12.09      31.92      13.75
C      12.83      33.10      14.00
C      12.87      34.14      13.03
C      12.21      33.96      11.79
C      10.80      32.58      10.28
C      11.08      31.46       9.46
C      10.38      31.27       8.24
C       9.44      32.25       7.81
C       9.18      33.38       8.62
C       9.84      33.52       9.86
C       8.28      34.36       8.24
C      13.63      35.27      13.25
C      12.12      30.84      14.62
C      10.57      30.14       7.46
C      10.52      11.25      33.56
C      10.57      12.25      34.55
C       9.88      12.11      35.77
C       9.15      10.92      36.02
C       9.13       9.88      35.06
C       9.79      10.06      33.81
C      11.19      11.45      32.32
C      10.92      12.57      31.49
C      11.62      12.76      30.27
C      12.56      11.78      29.85
C      12.83      10.65      30.66
C      12.16      10.51      31.89
C      13.72       9.68      30.28
C       8.37       8.74      35.28
C       9.84      13.19      36.64
C      11.43      13.89      29.50
C      32.89      11.20      32.61
C      33.04      12.17      31.60
C      32.38      12.05      30.36
C      31.54      10.93      30.13
C      31.40       9.93      31.13
C      32.06      10.08      32.37
C      33.55      11.38      33.86
C      33.21      12.44      34.72
C      33.89      12.60      35.96
C      34.88      11.66      36.35
C      35.22      10.59      35.48
C      34.56      10.47      34.24
C      36.18       9.66      35.81
C      30.55       8.84      30.92
C      32.51      13.06      29.43
C      33.59      13.66      36.80
C      33.19      32.83      10.58
C      33.03      31.86       9.57
C      33.69      31.98       8.33
C      34.53      33.11       8.10
C      34.68      34.11       9.10
C      34.02      33.95      10.34
C      32.53      32.66      11.83
C      32.87      31.59      12.69
C      32.19      31.43      13.93
C      31.20      32.37      14.31
C      30.85      33.43      13.45
C      31.52      33.57      12.21
C      29.89      34.37      13.78
C      35.52      35.19       8.89
C      33.56      30.97       7.40
C      32.49      30.37      14.77
C      21.91      21.61      22.51
C      20.89      21.58      23.49
C      21.04      20.83      24.67
C      22.23      20.10      24.89
C      23.28      20.14      23.93
C      23.10      20.87      22.73
C      21.70      22.34      21.30
C      20.63      22.03      20.43
C      20.43      22.78      19.24
C      21.33      23.82      18.91
C      22.42      24.12      19.77
C      22.58      23.39      20.96
C      23.34      25.11      19.47
C      24.43      19.39      24.11
C      19.97      20.76      25.56
C      19.35      22.53      18.41
C       0.08      22.43       0.47
C       1.09      22.46       1.45
C       0.94      23.22       2.64
C      43.82      23.94       2.85
C      42.77      23.89       1.89
C      42.96      23.16       0.69
C       0.29      21.70      43.34
C       1.36      22.01      42.47
C       1.57      21.26      41.29
C       0.66      20.22      40.95
C      43.66      19.91      41.81
C      43.49      20.64      43.00
C      42.74      18.92      41.51
C      41.61      24.63       2.08
C       2.01      23.30       3.52
C       2.64      21.51      40.45
C      39.86      42.04       4.17
C      38.76      41.45       3.50
C      37.96      40.49       4.15
C      38.24      40.11       5.49
C      40.10      41.64       5.50
C      37.51      39.10       6.17
C      37.76      38.76       7.53
C      37.05      37.70       8.12
C      36.09      36.97       7.39
C      35.86      37.36       6.05
C      26.20       2.01      26.20
C      27.28       2.61      25.53
C      28.09       3.56      26.18
C      27.82       3.93      27.52
C      25.97       2.38      27.54
C      28.55       4.94      28.21
C      28.31       5.27      29.56
C      29.02       6.33      30.16
C      29.97       7.07      29.42
C      30.20       6.69      28.08
C      13.65      29.00      14.91
C      14.69      28.35      14.22
C      15.46      27.36      14.84
C      15.20      27.00      16.18
C      13.41      28.61      16.25
C      15.95      26.00      16.87
C      15.68      25.62      18.21
C      16.48      24.64      18.83
C      17.54      24.02      18.13
C      17.77      24.43      16.80
C       8.35      15.06      36.93
C       7.34      15.74      36.22
C       6.57      16.74      36.85
C       6.81      17.07      38.21
C       8.57      15.43      38.28
C       6.05      18.06      38.90
C       6.31      18.42      40.24
C       5.52      19.40      40.87
C       4.46      20.02      40.17
C       4.24      19.64      38.83
C      26.56      41.99      18.16
C      27.46      41.21      18.91
C      27.98      40.01      18.39
C      27.62      39.59      17.09
C      26.23      41.54      16.86
C      28.15      38.41      16.48
C      27.74      37.96      15.20
C      28.34      36.83      14.63
C      29.36      36.13      15.32
C      29.72      36.60      16.59
C      39.52       2.04      40.19
C      38.63       2.83      40.95
C      38.11       4.03      40.43
C      38.46       4.44      39.12
C      39.84       2.49      38.89
C      37.93       5.62      38.51
C      38.33       6.06      37.23
C      37.72       7.19      36.65
C      36.72       7.90      37.35
C      36.36       7.44      38.63
C       8.96      28.44       7.17
C       8.25      27.44       7.87
C       7.25      26.69       7.22
C       6.95      26.93       5.86
C       8.63      28.65       5.81
C       5.94      26.22       5.15
C       5.63      26.48       3.79
C       4.62      25.75       3.15
C       3.90      24.75       3.84
C       4.25      24.51       5.19
C      13.04      15.59      29.21
C      13.75      16.59      29.90
C      14.75      17.34      29.26
C      15.05      17.10      27.90
C      13.38      15.37      27.85
C      16.06      17.81      27.19
C      16.38      17.54      25.84
C      17.40      18.27      25.19
C      18.10      19.28      25.88
C      17.74      19.54      27.22
C       3.11       2.75      39.79
C       3.96       3.53      40.61
C       5.02       4.26      40.05
C       5.25       4.21      38.65
C       3.42       2.66      38.42
C       6.20       5.04      38.00
C       6.34       5.09      36.59
C       7.16       6.08      36.00
C       7.85       7.01      36.81
C       7.75       6.87      38.21
C      18.89      41.27      17.76
C      18.04      40.49      18.57
C      16.98      39.76      18.01
C      16.75      39.82      16.61
C      18.58      41.36      16.39
C      15.80      38.98      15.96
C      15.66      38.92      14.55
C      14.84      37.94      13.97
C      14.14      37.02      14.78
C      14.24      37.16      16.17
C      31.08      14.96      28.98
C      30.42      16.00      29.68
C      29.52      16.85      29.02
C      29.26      16.67      27.63
C      30.82      14.84      27.60
C      28.28      17.43      26.92
C      28.05      17.28      25.54
C      26.99      17.98      24.92
C      26.17      18.84      25.67
C      26.46      19.00      27.04
C      34.98      29.07       6.95
C      35.64      28.03       7.65
C      36.54      27.18       6.98
C      36.79      27.35       5.60
C      35.24      29.19       5.57
C      37.76      26.59       4.89
C      37.99      26.74       3.50
C      39.05      26.04       2.88
C      39.88      25.18       3.64
C      39.58      25.02       5.01
C      18.37       3.11      25.81
C      17.53       3.90      24.99
C      16.56       4.75      25.56
C      16.43       4.82      26.97
C      18.15       3.16      27.20
C      15.60       5.78      27.62
C      15.55       5.91      29.03
C      14.81       6.96      29.61
C      14.13       7.89      28.80
C      14.15       7.69      27.40
C       3.62      40.90       3.77
C       4.46      40.12       2.95
C       5.43      39.27       3.52
C       5.56      39.20       4.93
C       3.83      40.86       5.16
C       6.40      38.25       5.58
C       6.46      38.12       6.99
C       7.19      37.08       7.57
C       7.87      36.14       6.76
C       7.85      36.34       5.36
C      35.28      15.29      37.08
C      36.00      16.26      36.35
C      37.16      16.85      36.89
C      37.60      16.48      38.18
C      35.75      14.96      38.37
C      38.75      17.05      38.80
C      39.22      16.65      40.08
C      40.33      17.29      40.65
C      41.00      18.32      39.97
C      40.51      18.68      38.70
C      30.79      28.74      15.04
C      30.06      27.79      14.30
C      28.91      27.20      14.84
C      28.47      27.56      16.14
C      30.33      29.07      16.33
C      27.32      26.98      16.76
C      26.86      27.37      18.04
C      25.75      26.73      18.62
C      25.07      25.71      17.92
C      25.55      25.36      16.65
N      39.31      40.72       6.09
N      36.57      38.38       5.51
N      40.63      42.85       3.46
N      35.42      35.91       7.84
N      26.77       3.31      28.13
N      29.49       5.67      27.54
N      25.43       1.19      25.50
N      30.65       8.12      29.86
N      14.18      27.64      16.82
N      16.98      25.38      16.24
N      12.98      29.94      14.27
N      18.26      23.12      18.78
N       7.81      16.40      38.85
N       5.03      18.69      38.26
N       9.02      14.12      36.28
N       3.73      20.92      40.83
N      26.76      40.38      16.39
N      29.12      37.70      17.11
N      26.12      43.13      18.68
N      30.04      35.10      14.82
N      39.31       3.64      38.42
N      36.96       6.34      39.15
N      39.96       0.91      40.72
N      36.03       8.92      36.85
N       7.66      27.91       5.23
N       5.23      25.24       5.77
N       9.88      29.13       7.84
N       2.94      24.12       3.17
N      14.35      16.12      27.27
N      16.76      18.80      27.81
N      12.13      14.90      29.88
N      19.05      19.92      25.21
N       4.43       3.40      37.91
N       6.92       5.93      38.73
N       2.06       2.09      40.26
N       8.52       8.06      36.36
N      17.57      40.62      15.87
N      15.07      38.10      16.70
N      19.94      41.93      18.22
N      13.48      35.96      14.32
N      29.93      15.67      27.00
N      27.48      18.29      27.60
N      31.83      14.14      29.70
N      25.09      19.46      25.21
N      36.12      28.35       4.96
N      38.57      25.73       5.57
N      34.23      29.90       7.67
N      40.96      24.56       3.18
N      17.24       4.01      27.71
N      14.89       6.68      26.88
N      19.39       2.39      25.37
N      13.45       8.92      29.28
N       4.75      40.01       5.68
N       7.11      37.35       4.84
N       2.60      41.63       3.33
N       8.56      35.11       7.24
N      36.86      15.55      38.86
N      39.43      18.05      38.18
N      34.18      14.78      36.53
N      42.01      19.04      40.46
N      29.21      28.47      16.82
N      26.63      25.99      16.13
N      31.88      29.26      14.48
N      24.06      24.99      18.42
O      43.95      41.91       4.29
O      43.02       1.93      39.48
O       1.54      42.62      43.89
O      41.31      43.11      42.94
O      22.10       2.11      26.33
O      23.06      42.09      17.45
O      20.45       1.39      21.85
O      24.76       0.91      20.91
O      13.53      33.22      15.17
O       8.75      32.08       6.64
O      12.31      34.93      10.83
O      12.00      30.53       9.85
O       8.45      10.80      37.19
O      13.26      11.95      28.68
O       9.70       9.09      32.86
O       9.99      13.49      31.88
O      30.86      10.83      28.95
O      35.55      11.81      37.53
O      31.90       9.13      33.35
O      32.25      13.34      34.36
O      35.21      33.21       6.92
O      30.52      32.22      15.49
O      34.18      34.90      11.32
O      33.83      30.70      12.32
O      22.35      19.33      26.01
O      21.14      24.56      17.78
O      24.08      20.87      21.78
O      19.76      21.02      20.74
O      43.69      24.71       3.97
O       0.86      19.47      39.82
O      41.97      23.15      43.82
O       2.22      23.03      42.78
