1104

H       5.23      11.77      14.71
H       3.22      13.74      10.97
H       8.08      15.76      10.09
H       6.88      15.74       8.99
H       0.33       9.74      14.82
H       1.33       9.74      16.12
H       2.80      11.54      11.31
H       6.38      13.37      13.69
H      11.79      21.71      31.16
H      13.81      19.73      27.43
H       8.95      17.71      26.55
H      10.14      17.73      25.44
H      16.69      23.73      31.30
H      15.68      23.74      32.59
H      14.23      21.93      27.78
H      10.65      20.10      30.15
H      28.23      28.22       2.30
H      30.24      30.20       6.03
H      25.38      32.24       6.90
H      26.58      32.21       8.01
H       0.21      26.17       2.17
H      32.11      26.17       0.88
H      30.66      27.99       5.69
H      27.09      29.83       3.31
H      21.67       5.24      18.76
H      19.67       3.26      22.50
H      24.54       1.25      23.37
H      23.34       1.28      24.48
H      16.78       7.27      18.64
H      17.78       7.27      17.35
H      19.24       5.46      22.15
H      22.82       3.63      19.77
H      14.71       5.21      11.77
H      10.97       3.21      13.76
H      10.11       8.08      15.77
H       9.00       6.88      15.74
H      14.82       0.31       9.75
H      16.12       1.32       9.74
H      11.32       2.79      11.55
H      13.70       6.36      13.38
H      31.18      11.78      21.71
H      27.44      13.79      19.72
H      26.58       8.92      17.70
H      25.46      10.12      17.72
H      31.30      16.68      23.73
H      32.59      15.67      23.73
H      27.79      14.21      21.92
H      30.17      10.63      20.09
H       2.30      28.23      28.22
H       6.04      30.25      30.20
H       6.90      25.39      32.24
H       8.01      26.58      32.21
H       2.16       0.21      26.19
H       0.87      32.11      26.18
H       5.68      30.68      28.00
H       3.31      27.10      29.84
H      18.78      21.68       5.25
H      22.51      19.66       3.27
H      23.40      24.52       1.26
H      24.51      23.32       1.29
H      18.64      16.79       7.29
H      17.35      17.80       7.29
H      22.16      19.24       5.48
H      19.80      22.83       3.65
H      11.76      14.72       5.24
H      13.74      10.98       3.23
H      15.75      10.11       8.09
H      15.72       9.00       6.89
H       9.75      14.84       0.33
H       9.74      16.14       1.34
H      11.54      11.33       2.80
H      13.37      13.70       6.38
H      21.71      31.18      11.79
H      19.71      27.44      13.79
H      17.69      26.58       8.93
H      17.71      25.47      10.12
H      23.73      31.29      16.69
H      23.73      32.58      15.69
H      21.92      27.78      14.21
H      20.10      30.17      10.64
H      28.22       2.32      28.25
H      30.20       6.06      30.27
H      32.23       6.93      25.41
H      32.21       8.04      26.60
H      26.18       2.19       0.23
H      26.18       0.90      32.14
H      27.99       5.71      30.68
H      29.83       3.34      27.11
H       5.26      18.77      21.70
H       3.28      22.51      19.67
H       1.27      23.40      24.53
H       1.29      24.50      23.33
H       7.28      18.63      16.80
H       7.29      17.34      17.81
H       5.49      22.15      19.25
H       3.64      19.79      22.83
H       3.64      13.67      27.12
H       5.49      11.30      30.69
H       7.25      16.11      32.18
H       7.24      14.82       0.27
H       1.36       8.93      26.59
H       1.33      10.04      25.39
H       3.29      10.94      30.27
H       5.25      14.69      28.27
H      13.41      19.78      10.68
H      11.54      22.16      14.25
H       9.77      17.35      15.71
H       9.78      18.64      16.72
H      15.67      24.53      10.12
H      15.71      23.41       8.93
H      13.74      22.54      13.81
H      11.78      18.77      11.81
H      20.07       3.32       6.33
H      21.92       5.72       2.78
H      23.69       0.91       1.27
H      23.68       2.21       0.27
H      17.76       8.06       6.90
H      17.73       6.93       8.08
H      19.73       6.08       3.20
H      21.69       2.31       5.18
H      29.83      30.12      22.80
H      27.98      27.75      19.22
H      26.23      32.56      17.74
H      26.24      31.27      16.73
H      32.12      25.38      23.33
H      32.15      26.49      24.53
H      30.19      27.39      19.65
H      28.22      31.14      21.64
H      30.12      22.80      29.83
H      27.76      19.23      27.98
H      32.58      17.76      26.22
H      31.29      16.76      26.23
H      25.38      23.33      32.12
H      26.49      24.53      32.15
H      27.39      19.65      30.18
H      31.14      21.66      28.22
H       3.33       6.35      20.08
H       5.70       2.77      21.94
H       0.88       1.31      23.71
H       2.17       0.30      23.70
H       8.07       6.89      17.79
H       6.95       8.08      17.76
H       6.07       3.20      19.74
H       2.32       5.21      21.70
H      19.78      10.68      13.40
H      22.17      14.24      11.54
H      17.36      15.73       9.77
H      18.65      16.74       9.78
H      24.52      10.11      15.69
H      23.39       8.93      15.73
H      22.54      13.81      13.74
H      18.77      11.82      11.78
H      13.68      27.15       3.62
H      11.29      30.70       5.47
H      16.10      32.21       7.23
H      14.79       0.30       7.22
H       8.94      26.58       1.34
H      10.06      25.39       1.31
H      10.93      30.28       3.27
H      14.70      28.30       5.24
H       6.33      20.08       3.34
H       2.76      21.93       5.71
H       1.28      23.68       0.90
H       0.27      23.68       2.19
H       6.88      17.80       8.08
H       8.08      17.77       6.96
H       3.19      19.74       6.08
H       5.19      21.70       2.32
H      22.81      29.85      30.14
H      19.24      27.99      27.77
H      17.77      26.22      32.58
H      16.76      26.23      31.29
H      23.35      32.14      25.40
H      24.54      32.17      26.52
H      19.67      30.18      27.40
H      21.67      28.23      31.16
H      27.15       3.62      13.69
H      30.71       5.47      11.29
H      32.21       7.24      16.10
H       0.30       7.23      14.80
H      26.57       1.34       8.95
H      25.39       1.30      10.07
H      30.28       3.27      10.93
H      28.30       5.24      14.70
H      10.68      13.39      19.80
H      14.25      11.53      22.18
H      15.73       9.77      17.36
H      16.74       9.78      18.66
H      10.13      15.66      24.54
H       8.94      15.70      23.42
H      13.82      13.73      22.54
H      11.83      11.77      18.78
H       9.43      14.26      12.27
H      11.09      15.93      12.75
H       8.04      18.74      13.39
H       5.80      18.07      13.44
H       5.33      16.51      13.20
H       7.59      19.21      28.72
H       5.93      17.53      29.20
H       8.99      14.73      29.86
H      11.23      15.41      29.90
H      11.70      16.97      29.65
H      24.03      30.72       4.74
H      22.37      32.40       4.26
H      25.43       2.28       3.57
H      27.67       1.61       3.52
H      28.14       0.04       3.78
H      25.88       2.74      21.19
H      27.54       1.06      20.72
H      24.48      31.17      20.05
H      22.24      31.85      20.01
H      21.77       0.50      20.27
H      12.28       9.43      14.27
H      12.76      11.09      15.95
H      13.41       8.03      18.75
H      13.46       5.79      18.08
H      13.21       5.32      16.51
H      28.74       7.57      19.20
H      29.22       5.91      17.52
H      29.90       8.98      14.73
H      29.94      11.21      15.41
H      29.68      11.68      16.97
H       4.72      24.04      30.72
H       4.25      22.38      32.39
H       3.60      25.43       2.29
H       3.55      27.67       1.62
H       3.80      28.14       0.06
H      21.23      25.88       2.75
H      20.75      27.54       1.08
H      20.08      24.49      31.19
H      20.03      22.25      31.86
H      20.29      21.77       0.51
H      14.26      12.28       9.44
H      15.94      12.76      11.10
H      18.74      13.42       8.04
H      18.06      13.47       5.80
H      16.50      13.21       5.33
H      19.20      28.74       7.58
H      17.52      29.22       5.92
H      14.73      29.91       8.98
H      15.40      29.95      11.22
H      16.97      29.69      11.69
H      30.71       4.75      24.05
H      32.38       4.27      22.39
H       2.29       3.63      25.44
H       1.62       3.58      27.68
H       0.05       3.83      28.15
H       2.75      21.22      25.89
H       1.07      20.74      27.54
H      31.19      20.08      24.48
H      31.86      20.04      22.24
H       0.52      20.30      21.77
H      25.87      30.71      28.74
H      27.53      32.39      29.21
H      24.48       2.30      29.79
H      22.23       1.63      29.82
H      21.76       0.06      29.59
H      24.07       2.77      12.28
H      22.41       1.10      12.75
H      25.45      31.18      13.34
H      27.69      31.84      13.37
H      28.17       0.49      13.13
H       7.61      14.24      21.20
H       5.95      15.92      20.73
H       9.00      18.75      20.16
H      11.24      18.09      20.13
H      11.72      16.52      20.35
H       9.40      19.23       4.75
H      11.07      17.56       4.28
H       8.02      14.73       3.68
H       5.78      15.39       3.66
H       5.30      16.95       3.89
H      28.71      25.87      30.69
H      29.18      27.53      32.37
H      29.77      24.47       2.28
H      29.81      22.23       1.61
H      29.57      21.76       0.04
H      12.28      24.07       2.77
H      12.75      22.41       1.10
H      13.34      25.45      31.18
H      13.37      27.70      31.84
H      13.13      28.18       0.49
H      21.17       7.61      14.24
H      20.70       5.94      15.92
H      20.14       8.98      18.76
H      20.11      11.23      18.10
H      20.34      11.71      16.54
H       4.74       9.41      19.22
H       4.27      11.07      17.55
H       3.68       8.02      14.72
H       3.66       5.78      15.39
H       3.89       5.30      16.95
H      30.69      28.71      25.87
H      32.37      29.18      27.53
H       2.28      29.78      24.47
H       1.61      29.81      22.23
H       0.04      29.58      21.76
H       2.78      12.25      24.06
H       1.10      12.73      22.40
H      31.20      13.33      25.45
H      31.86      13.36      27.69
H       0.52      13.12      28.16
H      14.25      21.18       7.61
H      15.93      20.71       5.95
H      18.76      20.16       8.99
H      18.10      20.13      11.24
H      16.54      20.36      11.71
H      19.22       4.73       9.40
H      17.55       4.25      11.07
H      14.71       3.66       8.03
H      15.37       3.64       5.78
H      16.93       3.88       5.30
H       2.66       8.08      12.31
H       1.16       6.25      12.32
H      30.83       8.91      12.29
H      31.23      11.25      12.26
H      32.76      11.89      12.30
H      14.39      25.39      28.79
H      15.90      27.21      28.81
H      19.13      24.55      28.77
H      18.71      22.20      28.74
H      17.18      21.57      28.78
H      30.81      24.53       4.69
H      32.32      22.71       4.67
H       2.64      25.37       4.70
H       2.23      27.72       4.73
H       0.70      28.35       4.69
H      19.10       8.92      21.15
H      17.60      10.75      21.14
H      14.35       8.10      21.17
H      14.75       5.74      21.20
H      16.28       5.11      21.16
H      12.30       2.65       8.09
H      12.32       1.15       6.26
H      12.29      30.81       8.91
H      12.26      31.21      11.26
H      12.30      32.74      11.90
H      28.79      14.37      25.39
H      28.81      15.88      27.20
H      28.77      19.11      24.53
H      28.75      18.69      22.18
H      28.79      17.16      21.56
H       4.67      30.83      24.53
H       4.65      32.34      22.71
H       4.69       2.66      25.38
H       4.72       2.24      27.73
H       4.67       0.71      28.36
H      21.15      19.10       8.94
H      21.13      17.60      10.76
H      21.17      14.35       8.11
H      21.20      14.76       5.76
H      21.16      16.29       5.12
H       8.08      12.33       2.64
H       6.26      12.34       1.13
H       8.93      12.31      30.81
H      11.28      12.28      31.23
H      11.91      12.33      32.76
H      25.38      28.77      14.37
H      27.20      28.79      15.87
H      24.55      28.75      19.11
H      22.20      28.73      18.71
H      21.56      28.77      17.18
H      24.54       4.71      30.83
H      22.71       4.69      32.33
H      25.36       4.72       2.66
H      27.71       4.75       2.26
H      28.34       4.71       0.73
H       8.95      21.14      19.10
H      10.77      21.11      17.59
H       8.10      21.16      14.36
H       5.75      21.19      14.77
H       5.12      21.15      16.30
H      32.62      10.80      29.14
H      30.90       9.16      29.11
H       0.89       6.13      29.15
H       3.19       6.70      29.15
H       3.72       8.27      29.11
H      17.32      22.70      12.67
H      19.02      24.35      12.64
H      16.10      27.36      12.66
H      13.80      26.77      12.66
H      13.29      25.20      12.64
H      16.13       6.23       4.34
H      14.43       7.88       4.38
H      17.35      10.89       4.36
H      19.65      10.30       4.36
H      20.17       8.73       4.38
H       0.86      27.25      20.79
H       2.57      25.62      20.83
H      32.60      22.58      20.77
H      30.29      23.15      20.77
H      29.76      24.72      20.80
H      27.25      20.77       0.85
H      25.62      20.81       2.56
H      22.58      20.79      32.58
H      23.15      20.79      30.28
H      24.72      20.82      29.75
H       6.23       4.33      16.15
H       7.88       4.37      14.45
H      10.89       4.34      17.37
H      10.30       4.35      19.67
H       8.73       4.38      20.19
H      22.69      12.67      17.33
H      24.34      12.63      19.03
H      27.35      12.65      16.11
H      26.76      12.65      13.81
H      25.19      12.63      13.30
H      10.78      29.12      32.59
H       9.13      29.09      30.89
H       6.12      29.14       0.89
H       6.71      29.14       3.19
H       8.28      29.11       3.71
H       4.33      16.15       6.23
H       4.36      14.44       7.87
H       4.34      17.35      10.89
H       4.34      19.65      10.31
H       4.36      20.17       8.74
H      20.79       0.86      27.24
H      20.83       2.57      25.60
H      20.80      32.57      22.58
H      20.81      30.26      23.17
H      20.84      29.74      24.74
H      29.13      32.60      10.78
H      29.09      30.90       9.13
H      29.12       0.89       6.12
H      29.13       3.20       6.70
H      29.10       3.72       8.27
H      12.68      17.32      22.69
H      12.65      19.03      24.33
H      12.69      16.13      27.35
H      12.69      13.82      26.77
H      12.66      13.30      25.20
C       4.00      12.09      12.99
C       4.34      11.53      14.26
C       3.49      10.62      14.95
C       2.22      10.34      14.38
C       2.05      10.53      12.99
C       2.94      11.41      12.32
C       4.76      13.15      12.31
C       6.01      13.66      12.79
C       6.77      14.61      12.05
C       6.30      15.03      10.78
C       4.93      14.82      10.46
C       4.20      13.87      11.22
C      13.02      21.38      29.45
C      12.68      21.94      30.72
C      13.53      22.85      31.41
C      14.80      23.14      30.85
C      14.98      22.94      29.45
C      14.09      22.06      28.78
C      12.26      20.33      28.77
C      11.01      19.81      29.24
C      10.25      18.87      28.51
C      10.72      18.45      27.24
C      12.09      18.66      26.92
C      12.83      19.60      27.68
C      29.46      28.54       4.01
C      29.11      27.98       2.74
C      29.96      27.07       2.06
C      31.23      26.78       2.62
C      31.41      26.98       4.01
C      30.52      27.86       4.68
C      28.70      29.60       4.69
C      27.45      30.12       4.21
C      26.69      31.07       4.94
C      27.16      31.49       6.21
C      28.53      31.27       6.54
C      29.26      30.33       5.79
C      20.45       4.91      20.48
C      20.79       5.47      19.20
C      19.94       6.39      18.52
C      18.67       6.67      19.09
C      18.49       6.47      20.48
C      19.38       5.59      21.15
C      21.21       3.86      21.15
C      22.46       3.34      20.68
C      23.22       2.40      21.41
C      22.75       1.98      22.68
C      21.39       2.19      23.01
C      20.65       3.13      22.25
C      12.99       3.99      12.10
C      14.27       4.33      11.54
C      14.95       3.48      10.63
C      14.38       2.21      10.34
C      12.98       2.04      10.54
C      12.32       2.93      11.42
C      12.32       4.75      13.16
C      12.80       6.00      13.67
C      12.06       6.77      14.62
C      10.79       6.30      15.04
C      10.46       4.93      14.83
C      11.22       4.19      13.88
C      29.46      13.01      21.38
C      30.74      12.66      21.94
C      31.42      13.51      22.85
C      30.86      14.78      23.13
C      29.46      14.96      22.93
C      28.79      14.07      22.06
C      28.79      12.24      20.32
C      29.26      11.00      19.80
C      28.53      10.23      18.86
C      27.26      10.70      18.44
C      26.93      12.07      18.65
C      27.69      12.80      19.59
C       4.01      29.47      28.54
C       2.74      29.12      27.99
C       2.05      29.96      27.07
C       2.61      31.24      26.79
C       4.00      31.42      26.99
C       4.67      30.53      27.87
C       4.69      28.71      29.60
C       4.21      27.46      30.13
C       4.94      26.70      31.07
C       6.22      27.17      31.49
C       6.55      28.53      31.27
C       5.79      29.27      30.33
C      20.49      20.45       4.93
C      19.22      20.79       5.48
C      18.53      19.95       6.40
C      19.09      18.68       6.68
C      20.49      18.50       6.48
C      21.16      19.39       5.61
C      21.17      21.21       3.87
C      20.70      22.46       3.35
C      21.44      23.22       2.41
C      22.71      22.75       1.99
C      23.03      21.38       2.20
C      22.27      20.65       3.15
C      12.09      13.00       4.00
C      11.53      14.27       4.35
C      10.62      14.96       3.50
C      10.34      14.40       2.22
C      10.54      13.00       2.05
C      11.41      12.33       2.94
C      13.15      12.32       4.77
C      13.66      12.80       6.01
C      14.61      12.06       6.78
C      15.03      10.79       6.31
C      14.81      10.47       4.94
C      13.87      11.23       4.21
C      21.37      29.46      13.01
C      21.94      30.73      12.68
C      22.85      31.41      13.53
C      23.13      30.84      14.80
C      22.93      29.45      14.97
C      22.05      28.79      14.08
C      20.31      28.79      12.25
C      19.80      29.27      11.00
C      18.85      28.54      10.24
C      18.43      27.27      10.71
C      18.64      26.94      12.07
C      19.59      27.69      12.81
C      28.54       4.04      29.48
C      27.99       2.76      29.14
C      27.07       2.08      29.98
C      26.79       2.64      31.25
C      26.99       4.04      31.43
C      27.86       4.71      30.54
C      29.60       4.71      28.72
C      30.12       4.24      27.47
C      31.07       4.97      26.71
C      31.48       6.24      27.18
C      31.27       6.57      28.55
C      30.33       5.81      29.28
C       4.93      20.48      20.46
C       5.49      19.21      20.81
C       6.40      18.52      19.96
C       6.69      19.08      18.69
C       6.49      20.48      18.51
C       5.61      21.15      19.39
C       3.88      21.17      21.22
C       3.36      20.70      22.46
C       2.41      21.43      23.23
C       2.00      22.70      22.75
C       2.21      23.03      21.38
C       3.15      22.26      20.65
C       3.88      12.29      28.73
C       3.36      12.76      27.48
C       2.43      12.02      26.71
C       2.03      10.74      27.18
C       2.23      10.42      28.55
C       3.16      11.19      29.29
C       4.93      12.98      29.50
C       5.48      14.25      29.16
C       6.39      14.94      30.01
C       6.67      14.37      31.28
C       6.48      12.98      31.46
C       5.61      12.31      30.56
C      13.16      21.17      12.28
C      13.68      20.70      11.04
C      14.61      21.44      10.26
C      15.00      22.72      10.72
C      14.79      23.05      12.09
C      13.87      22.28      12.83
C      12.11      20.49      13.05
C      11.55      19.21      12.71
C      10.64      18.52      13.55
C      10.37      19.09      14.83
C      10.56      20.48      15.01
C      11.43      21.15      14.11
C      20.31       4.71       4.73
C      19.79       4.23       5.98
C      18.86       4.97       6.75
C      18.45       6.25       6.29
C      18.66       6.59       4.93
C      19.59       5.82       4.18
C      21.36       4.04       3.96
C      21.91       2.76       4.30
C      22.83       2.08       3.44
C      23.10       2.65       2.17
C      22.90       4.04       2.00
C      22.04       4.71       2.90
C      29.60      28.74      21.19
C      30.11      29.21      22.43
C      31.04      28.47      23.21
C      31.45      27.19      22.74
C      31.24      26.87      21.37
C      30.32      27.64      20.63
C      28.55      29.42      20.42
C      27.99      30.70      20.76
C      27.09      31.39      19.90
C      26.81      30.82      18.63
C      27.00      29.43      18.46
C      27.87      28.75      19.35
C      28.74      21.19      29.59
C      29.21      22.44      30.11
C      28.47      23.21      31.04
C      27.19      22.74      31.44
C      26.87      21.38      31.24
C      27.64      20.63      30.31
C      29.43      20.43      28.54
C      30.71      20.77      27.99
C      31.40      19.92      27.08
C      30.84      18.65      26.80
C      29.44      18.47      26.99
C      28.77      19.36      27.86
C       4.71       4.74      20.32
C       4.24       5.98      19.80
C       4.98       6.76      18.87
C       6.26       6.29      18.47
C       6.59       4.93      18.68
C       5.82       4.18      19.61
C       4.03       3.98      21.38
C       2.75       4.32      21.93
C       2.06       3.47      22.84
C       2.62       2.20      23.12
C       4.02       2.02      22.93
C       4.69       2.91      22.06
C      21.17      12.28      13.16
C      20.69      11.04      13.68
C      21.43      10.26      14.61
C      22.71      10.72      15.01
C      23.05      12.08      14.80
C      22.28      12.83      13.87
C      20.49      13.05      12.11
C      19.21      12.71      11.55
C      18.53      13.57      10.64
C      19.09      14.84      10.37
C      20.49      15.01      10.56
C      21.16      14.11      11.43
C      12.29      28.75       3.86
C      12.77      27.50       3.34
C      12.03      26.72       2.41
C      10.75      27.19       2.01
C      10.42      28.55       2.22
C      11.19      29.30       3.14
C      12.97      29.52       4.91
C      14.25      29.19       5.46
C      14.93      30.04       6.37
C      14.36      31.31       6.65
C      12.96      31.48       6.46
C      12.30      30.58       5.59
C       4.73      20.32       4.72
C       5.97      19.81       4.25
C       6.75      18.88       4.99
C       6.29      18.47       6.27
C       4.92      18.68       6.60
C       4.17      19.61       5.83
C       3.96      21.37       4.04
C       4.30      21.92       2.76
C       3.44      22.83       2.07
C       2.17      23.11       2.64
C       2.00      22.92       4.03
C       2.89      22.05       4.71
C      21.20      29.61      28.76
C      22.45      30.13      29.23
C      23.22      31.06      28.49
C      22.75      31.46      27.21
C      21.39      31.25      26.88
C      20.65      30.32      27.65
C      20.44      28.55      29.44
C      20.78      28.00      30.72
C      19.93      27.09      31.40
C      18.65      26.81      30.84
C      18.48      27.00      29.45
C      19.37      27.87      28.77
C      28.75       3.86      12.29
C      27.50       3.34      12.77
C      26.73       2.41      12.03
C      27.18       2.01      10.75
C      28.55       2.22      10.42
C      29.30       3.14      11.19
C      29.52       4.91      12.97
C      29.18       5.46      14.25
C      30.04       6.37      14.93
C      31.31       6.65      14.36
C      31.48       6.45      12.97
C      30.58       5.59      12.30
C      12.29      13.15      21.18
C      11.04      13.67      20.71
C      10.27      14.60      21.45
C      10.73      15.00      22.73
C      12.10      14.79      23.06
C      12.84      13.86      22.29
C      13.05      12.10      20.50
C      12.72      11.54      19.22
C      13.57      10.63      18.54
C      14.84      10.36      19.10
C      15.01      10.55      20.50
C      14.12      11.42      21.17
C       9.13      15.19      12.57
C      10.11      16.18      12.80
C       9.73      17.51      13.08
C       8.34      17.79      13.16
C       7.35      16.80      13.02
C       7.74      15.47      12.68
C       7.90      18.28      29.02
C       6.92      17.28      29.25
C       7.30      15.95      29.54
C       8.69      15.68      29.63
C       9.68      16.68      29.48
C       9.28      18.01      29.14
C      24.34      31.65       4.43
C      23.36      32.65       4.21
C      23.74       1.06       3.90
C      25.13       1.33       3.81
C      26.12       0.34       3.96
C      25.72      31.92       4.31
C      25.57       1.81      20.89
C      26.55       0.81      20.67
C      26.17      32.40      20.37
C      24.78      32.13      20.28
C      23.79       0.21      20.44
C      24.19       1.54      20.78
C      12.58       9.12      15.20
C      12.81      10.10      16.19
C      13.10       9.72      17.52
C      13.18       8.33      17.80
C      13.03       7.34      16.80
C      12.70       7.73      15.47
C      29.04       7.88      18.27
C      29.27       6.90      17.27
C      29.57       7.28      15.95
C      29.66       8.67      15.68
C      29.51       9.66      16.68
C      29.17       9.27      18.00
C       4.43      24.35      31.65
C       4.20      23.37      32.64
C       3.91      23.74       1.06
C       3.83      25.13       1.34
C       3.98      26.13       0.35
C       4.31      25.73      31.93
C      20.93      25.57       1.83
C      20.70      26.55       0.83
C      20.40      26.17      32.41
C      20.31      24.79      32.14
C      20.46      23.79       0.22
C      20.81      24.19       1.55
C      15.19      12.58       9.13
C      16.19      12.81      10.11
C      17.51      13.10       9.73
C      17.79      13.18       8.34
C      16.79      13.04       7.35
C      15.46      12.70       7.75
C      18.27      29.05       7.88
C      17.27      29.28       6.91
C      15.95      29.58       7.29
C      15.68      29.67       8.68
C      16.67      29.52       9.67
C      18.00      29.17       9.27
C      31.64       4.46      24.36
C      32.64       4.23      23.38
C       1.05       3.94      23.75
C       1.33       3.86      25.14
C       0.34       4.01      26.13
C      31.92       4.34      25.74
C       1.82      20.92      25.58
C       0.82      20.69      26.55
C      32.41      20.40      26.17
C      32.14      20.32      24.78
C       0.22      20.47      23.79
C       1.55      20.81      24.19
C      25.56      31.64      29.02
C      26.54      32.64      29.24
C      26.16       1.06      29.51
C      24.78       1.34      29.57
C      23.78       0.35      29.43
C      24.18      31.93      29.11
C      24.38       1.84      12.56
C      23.39       0.85      12.79
C      23.77      32.42      13.06
C      25.15      32.14      13.12
C      26.15       0.21      12.98
C      25.76       1.55      12.66
C       7.92      15.18      20.92
C       6.94      16.18      20.70
C       7.31      17.51      20.44
C       8.70      17.80      20.38
C       9.70      16.80      20.52
C       9.30      15.46      20.83
C       9.10      18.30       4.47
C      10.08      17.30       4.24
C       9.70      15.97       3.97
C       8.32      15.68       3.90
C       7.32      16.68       4.05
C       7.71      18.01       4.37
C      28.99      25.56      31.62
C      29.21      26.54      32.62
C      29.48      26.16       1.04
C      29.55      24.77       1.32
C      29.41      23.78       0.33
C      29.09      24.17      31.91
C      12.56      24.38       1.84
C      12.78      23.40       0.84
C      13.05      23.77      32.42
C      13.12      25.16      32.13
C      12.97      26.15       0.21
C      12.66      25.76       1.55
C      20.90       7.91      15.18
C      20.67       6.93      16.18
C      20.41       7.30      17.51
C      20.35       8.69      17.80
C      20.49       9.69      16.81
C      20.80       9.30      15.47
C       4.46       9.11      18.29
C       4.23      10.08      17.29
C       3.97       9.71      15.96
C       3.90       8.32      15.68
C       4.05       7.33      16.67
C       4.36       7.72      18.01
C      31.62      28.99      25.56
C      32.62      29.21      26.54
C       1.04      29.48      26.16
C       1.32      29.55      24.77
C       0.33      29.41      23.78
C      31.91      29.09      24.17
C       1.85      12.54      24.36
C       0.85      12.76      23.39
C      32.43      13.04      23.76
C      32.15      13.11      25.15
C       0.23      12.96      26.14
C       1.57      12.64      25.75
C      15.19      20.91       7.92
C      16.18      20.68       6.94
C      17.52      20.43       7.31
C      17.81      20.37       8.69
C      16.82      20.51       9.69
C      15.48      20.82       9.30
C      18.29       4.44       9.10
C      17.29       4.22      10.08
C      15.96       3.95       9.71
C      15.67       3.88       8.32
C      16.66       4.03       7.33
C      18.00       4.34       7.72
C       1.66       8.28      12.17
C       0.78       7.19      12.16
C      32.30       7.40      12.26
C      31.83       8.73      12.17
C      32.71       9.85      12.20
C       1.20       9.62      12.28
C      15.38      25.18      28.65
C      16.27      26.27      28.64
C      17.66      26.06      28.74
C      18.13      24.72      28.65
C      17.24      23.61      28.67
C      15.84      23.84      28.75
C      31.81      24.74       4.82
C      32.70      23.64       4.83
C       1.17      23.86       4.73
C       1.64      25.20       4.82
C       0.76      26.31       4.80
C      32.27      26.07       4.72
C      18.11       8.72      21.29
C      17.22       9.81      21.30
C      15.83       9.60      21.20
C      15.35       8.27      21.29
C      16.23       7.15      21.27
C      17.64       7.38      21.19
C      12.17       1.66       8.29
C      12.16       0.77       7.20
C      12.26      32.29       7.41
C      12.17      31.82       8.74
C      12.20      32.69       9.86
C      12.28       1.19       9.63
C      28.65      15.36      25.18
C      28.65      16.26      26.27
C      28.74      17.65      26.05
C      28.65      18.11      24.71
C      28.68      17.22      23.60
C      28.76      15.82      23.84
C       4.81      31.82      24.74
C       4.82      32.71      23.65
C       4.72       1.19      23.87
C       4.81       1.66      25.20
C       4.78       0.77      26.32
C       4.70      32.28      26.08
C      21.29      18.11       8.74
C      21.29      17.22       9.83
C      21.19      15.83       9.61
C      21.28      15.36       8.28
C      21.26      16.24       7.16
C      21.19      17.64       7.40
C       8.29      12.19       1.65
C       7.20      12.18       0.76
C       7.42      12.28      32.28
C       8.76      12.19      31.82
C       9.87      12.22      32.70
C       9.63      12.30       1.19
C      25.17      28.63      15.36
C      26.27      28.63      16.25
C      26.05      28.72      17.64
C      24.72      28.64      18.11
C      23.60      28.66      17.23
C      23.84      28.74      15.83
C      24.74       4.84      31.82
C      23.64       4.85      32.71
C      23.85       4.75       1.19
C      25.18       4.84       1.66
C      26.30       4.82       0.78
C      26.07       4.74      32.29
C       8.74      21.28      18.11
C       9.83      21.28      17.22
C       9.61      21.18      15.83
C       8.28      21.28      15.36
C       7.17      21.26      16.25
C       7.40      21.18      17.65
C      32.89       9.82      29.26
C      31.87       8.86      29.26
C      32.18       7.48      29.18
C       0.64       7.12      29.26
C       1.69       8.08      29.23
C       1.35       9.46      29.17
C      17.04      23.68      12.79
C      18.05      24.65      12.78
C      17.73      26.02      12.70
C      16.36      26.37      12.77
C      15.32      25.40      12.75
C      15.66      24.02      12.70
C      16.42       7.21       4.23
C      15.40       8.18       4.23
C      15.72       9.55       4.31
C      17.09       9.91       4.25
C      18.13       8.94       4.27
C      17.79       7.56       4.32
C       0.59      26.27      20.67
C       1.61      25.31      20.67
C       1.30      23.94      20.75
C      32.84      23.57      20.67
C      31.79      24.53      20.70
C      32.13      25.91      20.75
C      26.27      20.66       0.58
C      25.31      20.66       1.60
C      23.94      20.74       1.29
C      23.57      20.67      32.83
C      24.53      20.70      31.78
C      25.91      20.75      32.12
C       7.21       4.22      16.44
C       8.18       4.22      15.42
C       9.55       4.30      15.74
C       9.91       4.23      17.11
C       8.94       4.26      18.15
C       7.56       4.31      17.81
C      23.67      12.78      17.05
C      24.64      12.78      18.07
C      26.01      12.70      17.74
C      26.37      12.77      16.37
C      25.40      12.74      15.33
C      24.02      12.70      15.67
C       9.81      29.25      32.88
C       8.83      29.24      31.86
C       7.46      29.16      32.18
C       7.11      29.24       0.64
C       8.07      29.22       1.68
C       9.45      29.16       1.34
C       4.21      16.43       7.20
C       4.22      15.41       8.17
C       4.30      15.73       9.54
C       4.23      17.10       9.90
C       4.25      18.14       8.94
C       4.30      17.80       7.56
C      20.68       0.58      26.27
C      20.68       1.60      25.30
C      20.76       1.28      23.93
C      20.69      32.82      23.57
C      20.72      31.78      24.54
C      20.77      32.12      25.92
C      29.24      32.88       9.80
C      29.24      31.86       8.83
C      29.16      32.18       7.46
C      29.23       0.64       7.10
C      29.21       1.68       8.07
C      29.16       1.34       9.45
C      12.80      17.04      23.66
C      12.80      18.06      24.63
C      12.72      17.74      26.00
C      12.80      16.37      26.36
C      12.77      15.33      25.40
C      12.72      15.67      24.02
N       1.24       9.78      15.15
N       7.13      15.69       9.92
N      15.78      23.68      31.62
N       9.90      17.79      26.37
N      32.21      26.23       1.85
N      26.33      32.15       7.07
N      17.69       7.22      18.32
N      23.58       1.33      23.55
N      15.15       1.22       9.79
N       9.93       7.13      15.69
N      31.63      15.77      23.68
N      26.40       9.87      17.78
N       1.83      32.22      26.24
N       7.08      26.34      32.14
N      18.32      17.70       7.23
N      23.57      23.57       1.33
N       9.79      15.17       1.24
N      15.68       9.93       7.14
N      23.68      31.61      15.78
N      17.77      26.40       9.88
N      26.24       1.87      32.24
N      32.14       7.11      26.35
N       7.24      18.31      17.71
N       1.34      23.57      23.58
N       1.40       9.86      26.34
N       7.21      15.15      32.27
N      15.63      23.60       9.88
N       9.82      18.31      15.81
N      17.82       7.12       7.14
N      23.63       1.88       1.18
N      32.09      26.32      23.57
N      26.27      31.59      17.64
N      26.32      23.58      32.08
N      31.61      17.67      26.26
N       7.14       7.13      17.84
N       1.85       1.21      23.66
N      23.58       9.88      15.64
N      18.32      15.83       9.83
N       9.88      26.34       1.38
N      15.13      32.30       7.19
N       7.13      17.84       7.14
N       1.18      23.64       1.86
N      23.59      32.09      26.34
N      17.67      26.27      31.61
N      26.34       1.38       9.88
N      32.30       7.18      15.13
N       9.89      15.63      23.60
N      15.83       9.82      18.33
N       6.05      17.16      13.19
N      10.98      16.32      29.66
N      27.42       0.70       3.78
N      22.49      32.76      20.26
N      13.21       6.04      17.17
N      29.69      10.97      16.31
N       3.80      27.43       0.71
N      20.29      22.49      32.77
N      17.15      13.21       6.05
N      16.31      29.70      10.97
N       0.71       3.83      27.44
N      32.77      20.29      22.49
N      22.48       0.72      29.58
N      27.45      32.75      13.13
N      11.00      17.17      20.36
N       6.02      16.30       3.89
N      29.57      22.48       0.70
N      13.13      27.46      32.75
N      20.34      10.99      17.19
N       3.89       6.02      16.30
N       0.70      29.57      22.48
N      32.78      13.12      27.45
N      17.19      20.37      10.99
N      16.29       3.87       6.02
N      32.19      11.10      12.29
N      17.76      22.35      28.76
N       1.27      27.56       4.70
N      15.71       5.90      21.17
N      12.29      32.17      11.11
N      28.77      17.74      22.34
N       4.68       1.29      27.57
N      21.17      15.72       5.91
N      11.12      12.32      32.19
N      22.35      28.76      17.75
N      27.55       4.72       1.30
N       5.91      21.17      15.73
N       2.97       7.65      29.13
N      14.03      25.82      12.65
N      19.42       9.36       4.37
N      30.51      24.10      20.79
N      24.10      20.80      30.50
N       9.36       4.36      19.44
N      25.82      12.64      14.04
N       7.65      29.13       2.97
N       4.35      19.43       9.37
N      20.82      30.49      24.11
N      29.11       2.97       7.65
N      12.68      14.04      25.83
