45

Co       3.06      11.24      13.28
Co       5.52      17.99      13.32
Co       0.61      12.37       6.64
C       3.63      15.67      13.25
C       3.08      14.39      13.19
C       5.20      13.51      13.21
C       5.75      14.79      13.28
C       2.82      16.90      13.28
C       2.51      12.05       8.94
C       3.05      11.87      10.21
C       0.93      11.72      11.08
C       0.39      11.89       9.81
C       3.31      12.22       7.73
C       2.50       6.83      13.38
C       3.04       8.11      13.40
C       0.92       8.99      13.41
C       0.38       7.71      13.37
C       3.31       5.61      13.35
C       3.61      10.46      17.65
C       3.07      10.63      16.37
C       5.19      10.78      15.51
C       5.73      10.62      16.79
C       2.80      10.29      18.86
N       4.96      15.87      13.29
N       3.87      13.30      13.18
N       3.52      18.06      13.32
N       1.49      16.79      13.27
N       1.17      12.06       8.74
N       2.26      11.69      11.29
N       2.61      12.38       6.58
N       4.65      12.21       7.83
N       1.16       6.63      13.36
N       2.26       9.20      13.41
N       2.61       4.44      13.31
N       4.64       5.71      13.36
N       4.95      10.46      17.85
N       3.86      10.80      15.30
N       3.50      10.14      20.01
N       1.47      10.30      18.76
Cl       5.49      18.02      11.11
Cl       0.61      14.55       6.98
Cl       5.52      17.97      15.53
Cl       0.61      10.19       6.30
Cl       4.93      10.32      12.20
Cl       1.21      12.18      14.38
