138

C       9.68      27.17       3.67
C       8.72      11.12       0.92
C       8.73       9.71       0.90
C       8.58      14.10       0.34
C       9.68      26.19       2.70
C       9.72      11.87       0.24
C       8.70      28.94      10.16
C       8.70      28.93      11.56
C       9.70      29.59      12.31
C       8.56      29.51      14.55
C       9.72      29.64       8.00
C       9.71      29.63       9.43
C       9.71      29.57      13.74
C       8.52      29.78       7.25
C       8.52      29.79       5.85
C       8.53       6.81       0.06
C       8.53       5.41       0.05
C       8.56      29.87      24.40
C       8.58      29.86      22.99
C       9.13       0.66      18.67
C       9.10       0.68      20.08
C       8.56      23.99      29.88
C       8.58      22.55       0.01
C       9.11      19.67      29.19
C       9.14      18.27      29.20
C       9.73      28.41       3.03
C       9.74      29.67       3.70
C       9.74      26.80       1.44
C       9.74      26.12       0.20
C       9.73       3.26       0.19
C       9.73       2.62       1.46
C       9.74       1.05       3.05
C       9.74       2.29       3.68
C       9.73       3.26       2.70
C       9.73       4.69       0.17
C       1.05       5.41       0.29
C       1.05       6.82       0.30
C       9.73       7.55       0.18
C       9.73       8.99       0.20
C       9.75      24.69       0.22
C       1.06      23.98       0.46
C       1.07      22.58       0.49
C       9.77      21.83       0.26
C       9.79      20.40       0.28
C       9.87      17.53       0.30
C       0.63      18.28       1.30
C       0.60      19.69       1.29
C       0.00      16.11       0.31
C       9.74      13.30       0.27
C       1.18      15.32       0.22
C       9.73      28.37      27.22
C       9.73      27.12      26.59
C       9.73      29.64      26.56
C       9.73      29.66       5.13
C       1.04      29.53       5.86
C       1.03      29.52       7.26
C       9.75      29.64      25.13
C       9.77      29.61      22.27
C       1.06      29.38      23.02
C       1.05      29.40      24.43
C       9.78      29.58      20.84
C       0.59      28.57      20.13
C       0.61      28.55      18.73
C       9.85      29.55      17.97
C       9.87      29.54      16.55
C       1.16      29.61      15.76
C       2.54      29.74      16.30
C       9.74      26.79      28.81
C       9.75      26.15      27.57
C       9.73       1.01      27.24
C       9.74       2.61      28.83
C       9.79       3.23      27.57
C       9.79       2.25      26.60
C       0.82       0.38      11.59
C       0.82       0.41      10.18
C       0.83       9.77      29.42
C       0.83      11.18      29.44
C       2.55      15.86       0.08
H       8.01       9.22       1.43
H       8.00      11.59       1.46
H       7.64      13.70       0.35
H       9.63      25.18       2.89
H       7.96      28.39      12.04
H       7.98      28.42       9.66
H       7.62      29.51      14.14
H       8.65      17.76      28.46
H       8.60      20.14      28.43
H       7.70      22.09      29.75
H       7.68      24.48      29.71
H       7.68       0.15      24.89
H       7.69       0.12      22.50
H       7.64       4.95      29.85
H       7.63       7.33      29.83
H       7.63       0.01       5.35
H       7.62       0.02       7.73
H       8.60       1.44      20.54
H       8.64       1.40      18.16
H       9.63      26.98       4.67
H       9.64       0.61      29.24
H       9.72      26.93      25.58
H       9.83      28.81       1.02
H       1.13      17.81       2.07
H       1.08      20.19       2.04
H       1.96      22.10       0.65
H       1.93      24.49       0.62
H       9.73       4.27       2.88
H       1.94       4.91       0.39
H       1.94       7.30       0.42
H       2.81      16.42       0.98
H       1.93      29.23      24.93
H       1.95      29.21      22.54
H       1.93      29.39       7.75
H       1.94      29.43       5.36
H       1.06      27.81      20.64
H       1.10      27.78      18.26
H       2.79      28.84      16.86
H       9.75      25.15      27.39
H       9.84       2.44      25.60
H       9.84       4.24      27.38
H       9.74       2.48       4.69
H       1.57      11.68      28.93
H       1.56       9.30      28.88
H       1.56       0.94       9.71
H       1.56       0.89      12.08
H       3.27      29.83      15.49
H       2.55       1.80      16.65
H       3.29      15.09      29.88
H       2.56      16.25      28.02
N       8.70      15.45       0.34
N       8.68      29.51      15.90
N       9.70       1.28      28.56
N       9.77      28.14       1.70
N       9.73       1.30       1.73
N       1.03      13.97       0.20
N       9.73      28.12      28.54
N       1.01      29.63      14.41
O       2.68       0.98      17.18
O       2.68      16.78      28.84
