12

Zn       3.22       4.26       5.46
C       4.49       4.22       2.76
N       1.23       4.06       5.66
N       0.43       4.76       4.95
O       3.47       6.22       5.45
O       3.40       4.25       3.48
O       3.73       2.37       5.39
O       3.80       4.35       7.36
H       0.75       3.42       6.32
C       4.53       6.93       5.34
C       4.90       1.89       5.27
C       4.97       4.55       7.85
