14

O       0.16       1.97       1.19
O      -0.32       0.30       7.25
O      -0.06      -1.70       6.30
H       0.25       2.22       5.63
H      -0.45      -1.62       3.74
H       0.43       3.21       3.32
H      -0.31      -0.45       1.52
C      -0.19      -0.44       6.21
C      -0.14       0.21       4.87
C       0.11       1.59       4.75
C      -0.29      -0.54       3.70
C       0.22       2.16       3.50
C      -0.21       0.07       2.47
N       0.05       1.41       2.38
