14

C      -1.69       7.58       5.29
C      -2.11       5.47       6.30
O      -1.76       7.35       7.60
O      -2.29       5.75       1.52
H      -1.67       7.66       3.16
H      -2.36       3.80       5.00
H      -1.48       8.62       5.49
H      -2.21       4.93       7.24
O      -1.94       3.75       2.46
N      -1.86       6.81       6.41
C      -2.11       5.01       2.55
C      -2.06       5.65       3.89
C      -1.81       7.02       4.03
C      -2.19       4.87       5.05
