16

O       6.58       1.93       5.01
O       6.73       2.04       7.27
H       9.97       5.12       3.62
H      10.69       4.81       7.85
O      12.14       6.43       6.65
O      12.00       6.32       4.40
H       8.03       3.54       3.82
H       8.75       3.24       8.05
C      10.11       4.53       6.97
C       9.70       4.69       4.58
C      10.45       5.05       5.71
C      11.61       5.99       5.56
C       7.12       2.37       6.11
C       8.27       3.31       5.95
C       8.62       3.83       4.69
C       9.02       3.66       7.09
