248

C      11.90      -1.75      25.84
C      11.91      -0.53      23.70
C      11.93      -2.99      23.72
C      10.81      -3.85      23.74
C      10.82      -5.07      23.04
C      11.96      -5.47      22.29
C      13.08      -4.60      22.27
C      13.07      -3.38      22.98
C      13.07      -2.06      26.56
C      13.07      -2.07      27.97
C      11.90      -1.76      28.70
C      10.72      -1.44      27.96
C      10.73      -1.44      26.55
C      13.02       0.34      23.77
C      13.02       1.55      23.06
C      11.92       1.93      22.25
C      10.82       1.05      22.17
C      10.81      -0.16      22.90
C       3.23      19.99      10.46
C       3.22      18.74      12.57
C       3.24      21.20      12.59
C       2.13      22.07      12.55
C       2.14      23.29      13.26
C       3.27      23.68      14.03
C       4.38      22.80      14.06
C       4.37      21.59      13.35
C       2.10      19.55       9.74
C       2.09      19.55       8.33
C       3.22      20.00       7.60
C       4.35      20.45       8.33
C       4.35      20.44       9.74
C       4.31      17.85      12.49
C       4.29      16.62      13.18
C       3.18      16.25      13.98
C       2.09      17.15      14.05
C       2.10      18.37      13.35
C      13.14       7.51      19.18
C      11.91       5.70      20.20
C      10.63       7.61      19.17
C      10.56       8.60      18.16
C       9.35       9.23      17.82
C       8.15       8.90      18.49
C       8.21       7.92      19.51
C       9.42       7.30      19.85
C      13.89       8.24      20.11
C      15.11       8.85      19.74
C      15.59       8.80      18.40
C      14.81       8.05      17.48
C      13.63       7.39      17.86
C      12.24       5.62      21.57
C      12.25       4.38      22.23
C      11.91       3.18      21.56
C      11.56       3.28      20.19
C      11.56       4.52      19.51
C      11.96      -9.17      20.12
C      12.43      -7.98      19.52
C      12.44      -6.77      20.24
C      11.96      -6.70      21.57
C      11.49      -7.90      22.16
C      11.49      -9.12      21.45
C      13.12      -1.72      35.13
C      11.89      -1.75      32.99
C      10.67      -1.75      35.13
C       9.84      -2.90      35.14
C       8.63      -2.90      35.85
C       8.19      -1.75      36.57
C       9.03      -0.61      36.55
C      10.25      -0.61      35.84
C      13.96      -0.59      35.09
C      15.18      -0.58      35.79
C      15.60      -1.69      36.56
C      14.74      -2.82      36.60
C      13.52      -2.83      35.90
C      12.48      -2.81      32.28
C      12.49      -2.81      30.87
C      11.89      -1.76      30.13
C      11.29      -0.70      30.86
C      11.31      -0.69      32.27
C       4.44      10.75      17.34
C       3.17      12.58      16.21
C       1.94      10.80      17.29
C       1.42       9.76      16.49
C       0.23       9.10      16.87
C      16.81       9.49      18.01
C      17.32      10.59      18.75
C       1.21      11.21      18.42
C       5.58      11.53      17.66
C       6.80      10.93      18.02
C       6.92       9.52      18.13
C       5.78       8.74      17.84
C       4.57       9.34      17.44
C       3.54      12.59      14.84
C       3.54      13.79      14.11
C       3.17      15.02      14.71
C       2.81      15.00      16.08
C       2.82      13.81      16.82
C       4.52      29.23      17.25
C       3.29      27.39      16.18
C       2.06      29.23      17.26
C       1.67      30.46      16.68
C       0.45      31.06      17.03
C      16.91      30.46      17.98
C      17.31      29.23      18.56
C       1.20      28.63      18.20
C       4.93      29.28      18.60
C       6.15      29.89      18.95
C       6.99      30.47      17.97
C       6.56      30.42      16.62
C       5.34      29.81      16.26
C       3.74      26.21      16.79
C       3.74      24.99      16.08
C       3.27      24.92      14.74
C       2.82      26.12      14.14
C       2.83      27.34      14.85
C       4.46      19.95       1.18
C       3.22      19.98       3.30
C       2.00      19.97       1.18
C       1.17      21.11       1.18
C      17.27      21.11       0.48
C      16.85      -1.69      37.27
C       0.37      -2.82      37.27
C       1.59      18.84       0.45
C       5.31      18.83       1.24
C       6.53      18.82       0.54
C       6.94      -1.74      37.28
C       6.08      -0.62      37.22
C       4.85      21.06       0.40
C       3.69      21.10       4.02
C       3.69      21.11       5.43
C       3.22      19.99       6.16
C       2.74      18.87       5.44
C       2.75      18.86       4.03
C      13.18      32.31      19.05
C      10.72      32.32      19.04
C      10.33      31.10      19.62
C       9.11      30.49      19.27
C       8.24      31.09      18.32
C       8.64      32.32      17.75
C       9.87     -10.40      18.10
C      13.60      32.26      17.70
C      14.82      31.66      17.35
C      15.66      31.08      18.33
C      15.23      31.13      19.68
C      14.01      31.74      20.04
H      13.94      -2.27      28.46
H      13.94      -2.28      26.06
H       9.87      -1.22      26.05
H       9.85      -1.24      28.45
H       9.97      -3.58      24.26
H       9.98      -5.65      23.07
H      13.83       0.09      24.33
H      13.84       2.16      23.13
H       9.99       1.29      21.62
H       9.99      -0.78      22.84
H      13.89      -2.78      22.95
H      13.92      -4.86      21.76
H       1.25      19.23       7.85
H       1.27      19.22      10.24
H       5.18      20.76      10.24
H       5.19      20.76       7.84
H       1.30      21.81      12.02
H       1.31      23.88      13.22
H       5.13      18.10      11.94
H       5.11      16.01      13.11
H       1.26      16.92      14.60
H       1.30      19.00      13.42
H       5.19      20.98      13.39
H       5.22      23.05      14.58
H      15.63       9.32      20.47
H      13.56       8.36      21.07
H      13.09       6.88      17.16
H      15.07       8.00      16.49
H      11.39       8.88      17.64
H       9.35       9.92      17.07
H      12.45       6.47      22.10
H      12.48       4.37      23.23
H      11.32       2.44      19.66
H      11.31       4.56      18.53
H       9.42       6.62      20.61
H       7.36       7.67      20.03
H       8.87      29.59      19.70
H      12.76      -8.00      18.55
H      12.76      -5.93      19.76
H      11.16      -7.91      23.13
H      11.16      -9.97      21.91
H      10.13      -9.51      17.67
H      15.78       0.25      35.72
H      13.69       0.23      34.54
H      12.92      -3.66      35.94
H      14.99      -3.64      37.16
H      10.13      -3.74      34.63
H       8.04      -3.74      35.82
H      12.90      -3.60      32.78
H      12.91      -3.60      30.38
H      10.87       0.09      30.37
H      10.88       0.10      32.77
H      10.83       0.23      35.85
H       8.77       0.24      37.06
H       7.60      11.53      18.23
H       5.53      12.55      17.62
H       3.78       8.73      17.24
H       5.82       7.72      17.89
H       1.93       9.44      15.67
H      17.29       8.29      16.30
H       3.81      11.72      14.39
H       3.80      13.76      13.12
H       2.57      15.87      16.56
H       2.59      13.84      17.81
H       1.57      11.97      19.01
H      16.82      10.97      19.55
H       6.41      29.93      19.94
H       4.34      28.88      19.33
H       5.06      29.78      15.28
H       7.14      30.80      15.87
H       2.27      30.91      15.99
H       4.07      26.22      17.76
H       4.06      24.15      16.56
H       2.49      26.12      13.17
H       2.50      28.19      14.39
H       1.46      27.74      18.63
H      16.71      28.75      19.23
H       7.13      17.99       0.63
H       5.04      18.02       1.80
H       4.25      21.88       0.34
H       6.31       0.19      36.65
H       1.44      21.95       1.71
H      16.69      21.95       0.53
H       4.03      21.92       3.51
H       4.02      21.95       5.91
H       2.41      18.04       5.93
H       2.42      18.04       3.53
H       2.18      18.00       0.43
H       0.11      -3.66      36.74
H      15.08      31.62      16.36
H      13.01      32.67      16.97
H      13.73     -11.55      21.02
H      15.81      30.75      20.43
H      10.94      30.64      20.31
H       8.04      32.80      17.08
H       0.21      31.96      16.60
N      11.91      -1.76      24.42
N       3.24      19.98      11.88
N      11.87       6.97      19.54
N      11.95     -10.39      19.40
N      11.89      -1.74      34.42
N       3.20      11.38      16.98
N       3.29      28.62      16.90
N       3.23      19.97       1.89
