112

Ba       3.75       2.75       6.24
Ba       2.61      11.07      13.68
Ba       8.97       9.66       1.19
Ba      10.11       4.16       8.62
Cu       6.36       5.01       7.21
Cu       0.00       8.81      14.64
Cu       6.36      11.92       0.22
Cu      12.72       1.90       7.65
H       9.52       7.76      10.63
H       9.03       9.36      12.36
H       9.92       1.51       5.42
H       9.93      13.59       3.69
H       9.56       6.06       3.19
H      10.05       4.46       4.92
H       9.16      12.31      12.85
H       9.15       0.23      11.13
H       3.20       0.85      11.67
H       3.69       2.45       9.94
H       2.80       8.42       2.02
H       2.79       6.68       3.74
H       3.16      12.97       4.24
H       2.67      11.37       2.51
H       3.56       5.40       9.45
H       3.57       7.14      11.17
C       7.46       6.72       8.93
C       7.56       7.72      10.08
C       8.67       8.08      10.80
C       8.38       8.99      11.80
C       7.06       9.29      11.89
C       6.36      10.17      12.89
C       7.66       3.09       5.90
C       8.01       1.95       4.97
C       9.18       1.31       4.88
C       9.20       0.29       3.90
C       7.97       0.19       3.29
C       7.61      13.12       2.15
C      11.63       7.10       1.49
C      11.52       6.10       2.65
C      10.42       5.74       3.36
C      10.70       4.83       4.37
C      12.02       4.53       4.46
C      12.72       3.65       5.45
C      11.42      10.73      13.33
C      11.08      11.87      12.40
C       9.90      12.51      12.31
C       9.89      13.53      11.33
C      11.11      13.63      10.72
C      11.47       0.70       9.58
C       5.27      13.63      13.37
C       5.16       0.81      12.22
C       4.06       1.17      11.50
C       4.34       2.08      10.50
C       5.66       2.38      10.40
C       6.36       3.26       9.41
C       5.06      10.00       1.54
C       4.72       8.86       2.47
C       3.54       8.22       2.55
C       3.52       7.20       3.54
C       4.75       7.10       4.15
C       5.11       6.21       5.29
C       1.10       0.19       5.94
C       1.20      13.01       4.79
C       2.31      12.65       4.07
C       2.02      11.74       3.07
C       0.70      11.44       2.97
C       0.00      10.56       1.98
C       1.30       3.82       8.97
C       1.64       4.96       9.90
C       2.82       5.60       9.99
C       2.84       6.62      10.97
C       1.61       6.72      11.58
C       1.25       7.61      12.72
S       6.14       8.48      10.70
S       6.86       1.32       3.88
S       0.22       5.34       3.26
S      12.23      12.50      11.31
S       6.59       1.57      11.60
S       5.87       8.23       3.55
S      12.50      12.25       4.17
S       0.50       5.59      10.99
O       6.30       6.42       8.55
O       8.52       6.31       8.48
O       5.15      10.39      12.72
O       7.10      10.62      13.82
O       6.47       3.50       5.89
O       8.55       3.55       6.61
O       6.43      13.22       1.69
O       8.48      12.33       1.68
O       0.06       7.40       1.11
O      10.56       7.51       1.05
O       1.21       3.43       5.29
O      11.99       3.20       6.38
O      12.61      10.32      13.32
O      10.53      10.27      14.04
O      12.65       0.60       9.13
O      10.60       1.49       9.12
O       6.42      13.33      13.75
O       4.20      13.22      13.82
O       7.57       3.48       9.58
O       5.63       3.71       8.48
O       6.25      10.41       1.55
O       4.17      10.46       0.82
O       6.29       6.31       5.74
O       4.24       5.42       5.75
O      12.67       0.49       6.32
O       2.16       0.60       6.38
O      11.51      10.34       2.15
O       0.74      10.11       1.05
O       0.11       3.41       8.98
O       2.19       3.36       8.26
O       0.07       7.51      13.17
O       2.12       8.40      13.18
