198

Zn       8.71       9.70      10.30
Zn      15.57       9.69      19.94
Zn       9.01       3.12       9.86
Zn       2.16       3.13       0.22
H      13.60       3.88      16.70
H      13.89       4.95      15.30
H       6.49       6.38      11.04
H       9.98       8.49       6.27
H       5.55       5.25      17.72
H      12.66       9.58      18.58
H      11.42       7.89      17.23
H      10.35       0.12      12.69
H       6.31      10.99      11.26
H       5.27       1.23      12.69
H      10.31      12.10      11.25
H       4.15       3.36      13.35
H       4.49       2.21      14.69
H       6.63       7.04      19.03
H      13.03       9.57       9.04
H      11.48       8.82       8.83
H       5.46       0.15       7.40
H       6.02       0.98       6.00
H      10.71       3.87      13.53
H      10.40       4.94      14.93
H       8.54       6.37      19.17
H      10.45       8.49       3.82
H       9.47       5.25      12.53
H      11.62       9.59      11.68
H      12.87       7.90      13.02
H       4.72       0.13      17.55
H       8.70      11.00      18.98
H       9.78       1.23      17.56
H      13.96      12.09      18.99
H      10.89       3.36      16.89
H      10.56       2.20      15.55
H       8.38       7.05      11.24
H       7.40       9.59       1.01
H       8.94       8.82       1.26
H       5.73       0.15       2.67
H       5.17       0.97       4.07
H       4.12       8.94       3.46
H       3.84       7.86       4.86
H      11.23       6.44       9.12
H       7.74       4.33      13.90
H      12.18       7.57       2.44
H       5.07       3.23       1.59
H       6.31       4.92       2.94
H       7.38      12.70       7.47
H      11.41       1.83       8.91
H      12.45      11.59       7.47
H       7.42       0.72       8.91
H      13.58       9.46       6.81
H      13.23      10.61       5.47
H      11.09       5.78       1.14
H       4.69       3.24      11.12
H       6.25       4.00      11.33
H      12.26      12.67      12.76
H      11.71      11.84      14.17
H       7.01       8.95       6.64
H       7.32       7.88       5.23
H       9.18       6.44       0.99
H       7.27       4.33      16.34
H       8.25       7.57       7.63
H       6.11       3.23       8.49
H       4.86       4.92       7.14
H      13.01      12.69       2.61
H       9.02       1.82       1.18
H       7.94      11.59       2.61
H       3.76       0.73       1.17
H       6.83       9.46       3.28
H       7.17      10.62       4.61
H       9.34       5.77       8.93
H      10.32       3.23      19.16
H       8.78       3.99      18.90
H      12.00      12.67      17.49
H      12.56      11.85      16.09
C      13.03       6.45      17.31
C      13.12       4.50      15.94
C       5.49       6.38      10.63
C       5.96       8.74       9.97
C      10.08       9.42       5.72
C      14.30       6.20      17.84
C      13.11       8.62      18.34
C       9.74      10.61       7.91
C       3.13       0.82      12.83
C       5.05       7.56      10.02
C      13.00       7.60       9.45
C       9.97      10.64       6.44
C      12.42       7.69      17.59
C      15.98      12.77      12.41
C       7.06      11.68      11.63
C       4.45       0.57      12.42
C       9.30      12.29      11.63
C       3.71       2.76      14.16
C      14.91       7.19      18.59
C      10.10      11.86       5.75
C      11.26       6.45      12.94
C      11.18       4.49      14.30
C       9.54       6.38      19.60
C       5.22       8.76       0.06
C      10.34       9.42       4.36
C       9.98       6.21      12.42
C      11.17       8.63      11.91
C      10.68      10.60       2.17
C      11.93       0.82      17.41
C       6.12       7.57       0.04
C       7.42       7.61       0.62
C      10.45      10.63       3.64
C      11.86       7.69      12.66
C       8.28      12.78      17.83
C       7.95      11.69      18.61
C      10.61       0.57      17.82
C      14.96      12.29      18.61
C      11.34       2.76      16.08
C       9.37       7.20      11.66
C      10.29      11.86       4.33
C       4.69       6.37       2.85
C       4.60       8.32       4.23
C      12.23       6.44       9.54
C      11.76       4.08      10.19
C       7.65       3.40      14.44
C       3.42       6.62       2.32
C       4.61       4.20       1.82
C       7.99       2.21      12.25
C      14.59      12.00       7.33
C      12.68       5.26      10.15
C       4.72       5.22      10.71
C       7.76       2.18      13.73
C       5.31       5.13       2.58
C       1.74       0.05       7.76
C      10.66       1.14       8.53
C      13.27      12.24       7.74
C       8.42       0.52       8.53
C      14.02      10.06       6.00
C       2.82       5.63       1.57
C       7.62       0.96      14.42
C       6.47       6.37       7.23
C       6.54       8.32       5.87
C       8.18       6.44       0.56
C      12.50       4.05      20.10
C       7.38       3.40      15.80
C       7.74       6.61       7.75
C       6.55       4.19       8.25
C       7.05       2.21      17.99
C       5.80      12.00       2.75
C      11.60       5.24      20.12
C      10.30       5.21      19.54
C       7.28       2.18      16.52
C       5.86       5.13       7.50
C       9.44       0.04       2.33
C       9.78       1.13       1.56
C       7.12      12.25       2.34
C       2.76       0.53       1.55
C       6.38      10.06       4.08
C       8.35       5.62       8.50
C       7.43       0.96      15.83
C      12.15       3.64      15.12
C       5.57       9.18       5.04
N      14.35       8.40      18.84
N       8.34      11.42      11.25
N      12.49       8.73       8.82
N       5.39       0.27       6.38
N       9.93       8.40      11.42
N      15.93      11.42      18.99
N       7.93       8.74       1.25
N       5.79       0.26       3.69
N       3.37       4.42       1.32
N       9.38       1.39       8.91
N       5.23       4.09      11.34
N      12.33      12.55      13.78
N       7.80       4.41       8.75
N       1.79       1.40       1.18
N       9.80       4.07      18.91
N      11.93      12.56      16.47
O       7.13       8.55      10.52
O       5.60       9.83       9.45
O      12.34       5.56      16.56
O       9.33       9.48       8.42
O      12.00       1.83      13.62
O       9.95      11.63       8.63
O       7.90       8.55      19.72
O       5.61       9.87       0.52
O      11.95       5.56      13.69
O      11.12       9.48       1.67
O      12.32       1.84      16.63
O      10.45      11.61       1.45
O      10.59       4.27       9.65
O      12.12       2.99      10.71
O       5.38       7.25       3.61
O       8.40       3.34      11.74
O       5.73      10.99       6.55
O       7.78       1.19      11.53
O       9.82       4.27       0.44
O      12.11       2.95      19.64
O       5.77       7.25       6.48
O       6.61       3.34      18.49
O       5.41      10.98       3.53
O       7.28       1.21      18.72
