732

C      14.80       5.96       6.73
C      14.78       6.12       4.48
C      13.46       6.12       4.93
C      13.47       5.98       6.30
C      15.18       6.18       3.11
C      14.15       6.24       2.12
C      13.39       5.09       1.82
C      12.32       5.17       0.91
C      12.00       6.38       0.26
C      12.79       7.52       0.53
C      13.84       7.46       1.46
C      21.85       6.15       6.24
C      21.84       5.98       4.87
C      20.51       5.94       4.44
C      20.53       6.17       6.69
C      16.52       6.08       2.65
C      18.75       5.89       2.65
C      18.31       5.88       1.32
C      16.94       6.01       1.32
C      20.10       5.81       3.09
C      21.11       5.65       2.09
C      21.39       4.37       1.55
C      22.45       4.20       0.64
C      23.27       5.29       0.27
C      22.97       6.57       0.80
C      21.90       6.75       1.69
C       6.01      15.16       3.17
C       5.95      14.73       4.52
C       5.76      14.75       6.75
C       5.81      13.41       6.34
C       5.94      13.40       4.96
C       6.13      14.16       2.16
C       5.00      13.77       1.41
C       5.12      12.86       0.35
C       7.50      12.64       0.81
C       7.38      13.58       1.85
C       5.97      20.62       6.70
C       5.74      20.60       4.47
C       5.79      21.93       4.88
C       5.94      21.94       6.25
C       5.62      20.13       3.13
C       5.70      18.77       2.73
C       5.90      16.52       2.75
C       5.84      16.94       1.42
C       5.68      18.31       1.41
C       5.50      21.12       2.10
C       6.61      21.45       1.31
C       6.48      22.36       0.24
C       4.13      22.67       0.78
C       4.26      21.74       1.83
C       3.58       5.05      14.68
C       5.12       3.22      14.88
C       6.56       0.27      12.21
C       6.77       1.64      11.92
C       6.46       2.63      12.87
C       5.91       2.28      14.14
C       5.88       0.90      14.47
C       0.92       6.62      11.80
C       0.66       6.83      13.17
C       1.62       6.47      14.14
C       2.86       5.88      13.76
C       3.17       5.85      12.38
C       2.21       6.20      11.41
C       8.31       6.74      14.79
C      15.22       5.87       8.09
C      14.21       5.73       9.09
C      13.42       6.85       9.46
C      12.36       6.69      10.37
C      12.06       5.43      10.93
C      12.88       4.33      10.59
C      13.93       4.47       9.67
C      10.99       5.32      11.86
C      11.26       5.08      13.23
C      10.30       5.38      14.21
C       9.04       5.94      13.85
C       8.72       5.99      12.47
C       9.69       5.71      11.49
C      20.14       6.26       8.06
C      18.79       6.17       8.51
C      16.56       5.97       8.53
C      17.00       5.99       9.86
C      18.38       6.13       9.85
C      21.17       6.36       9.04
C      21.48       7.59       9.65
C      21.93       5.22       9.37
C      23.01       5.33      10.27
C      23.34       6.56      10.87
C      22.54       7.69      10.57
C       6.73       8.54      15.02
C       5.68      15.21       8.09
C       5.56      14.23       9.12
C       4.32      13.61       9.41
C       4.21      12.68      10.46
C       5.32      12.38      11.28
C       6.57      12.99      10.97
C       6.69      13.89       9.91
C       5.24      11.45      12.34
C       5.65      11.83      13.64
C       5.97      10.85      14.60
C       5.93       9.47      14.29
C       5.35       9.10      13.04
C       5.02      10.08      12.08
C      22.64      12.90      15.46
C       5.94      18.40       9.79
C       5.78      17.03       9.81
C       5.76      16.58       8.49
C       5.97      18.83       8.46
C       6.06      20.18       8.04
C       6.19      21.19       9.05
C       7.45      21.79       9.32
C       5.07      21.56       9.82
C       5.21      22.49      10.87
C       6.47      23.08      11.16
C       7.58      22.74      10.35
C       6.18      23.67      13.52
C      12.66      22.57      15.51
C       3.33       3.45      16.46
C       3.47       6.64      19.67
C       6.65       3.03      19.60
C       5.21       0.08      22.27
C       4.98       1.44      22.55
C       5.31       2.43      21.60
C       5.88       2.09      20.34
C       5.94       0.71      20.01
C       0.78       5.17      22.58
C       2.09       5.55      22.95
C       3.05       5.86      21.97
C       2.72       5.84      20.59
C       1.46       5.29      20.23
C       0.50       4.97      21.21
C       0.43       0.72      17.85
C       1.79       0.49      18.13
C       2.76       1.46      17.82
C       2.39       2.70      17.23
C       1.00       2.99      17.14
C       0.04       2.01      17.42
C       8.43       3.30      18.01
C       8.18       4.88      19.81
C      10.86       6.42      22.69
C       9.57       5.99      23.08
C       8.60       5.65      22.11
C       8.90       5.71      20.73
C      10.13       6.31      20.35
C      11.10       6.65      21.32
C      11.40       0.68      16.54
C      11.75       1.99      16.94
C      10.76       2.93      17.26
C       9.38       2.59      17.21
C       9.05       1.33      16.64
C      10.04       0.39      16.31
C       3.25       8.24      17.89
C       5.06       8.42      19.45
C       6.53      11.29      22.17
C       6.14      11.69      20.88
C       5.83      10.72      19.90
C       5.87       9.34      20.20
C       6.44       8.96      21.45
C       6.76       9.92      22.42
C       0.37      11.00      16.48
C       1.74      11.23      16.23
C       2.70      10.25      16.55
C       2.32       9.00      17.11
C       0.93       8.72      17.19
C       6.42      12.21      23.25
C      23.47       9.71      16.89
C       8.55       8.33      16.58
C      15.19      15.31      17.39
C      14.20      14.29      17.54
C      13.82      13.51      16.42
C      12.93      12.44      16.58
C      12.37      12.14      17.84
C      12.72      12.95      18.95
C      13.64      14.00      18.80
C      11.46      11.06      17.96
C      11.84       9.76      17.56
C      10.87       8.78      17.29
C       9.48       9.08      17.36
C       9.12      10.34      17.91
C      10.09      11.31      18.21
C      20.17      15.29      16.97
C      18.80      14.89      17.07
C      16.55      14.90      17.29
C      16.99      13.57      17.26
C      18.36      13.57      17.09
C      21.15      14.27      16.85
C      21.51      13.50      17.97
C      22.39      12.41      17.83
C      22.96      12.09      16.58
C      21.73      13.97      15.59
C       5.63      23.48      20.96
C       5.28      22.88      23.32
C      14.75      16.66      17.31
C      14.75      18.89      17.10
C      13.42      18.46      17.15
C      13.42      17.09      17.30
C      15.21      20.23      17.00
C      14.22      21.25      16.88
C      13.60      21.52      15.64
C      12.35      23.39      16.62
C      12.97      23.10      17.87
C      13.88      22.04      18.00
C      18.39      21.95      17.22
C      17.02      21.95      17.07
C      16.57      20.63      17.07
C      18.82      20.62      17.26
C      20.18      20.21      17.36
C      20.63      18.87      17.27
C      20.62      16.64      17.06
C      21.95      17.06      17.09
C      21.95      18.43      17.24
C      21.18      21.23      17.48
C      21.75      21.54      18.74
C      21.55      21.99      16.36
C      22.44      23.07      16.49
C      22.67      22.60      18.87
C      23.00      23.39      17.75
C      14.75       5.64      30.02
C      14.74       5.88      27.77
C      13.41       5.85      28.22
C      13.42       5.67      29.58
C      15.14       5.99      26.41
C      14.11       6.10      25.42
C      13.35       4.97      25.06
C      12.27       5.09      24.17
C      11.94       6.34      23.60
C      12.73       7.47      23.92
C      13.80       7.35      24.84
C      21.80       5.84      29.55
C      21.80       5.70      28.18
C      20.47       5.69      27.75
C      20.48       5.85      30.00
C      16.48       5.91      25.95
C      18.71       5.71      25.94
C      18.28       5.76      24.62
C      16.90       5.90      24.62
C      20.06       5.62      26.38
C      21.07       5.51      25.39
C      21.35       4.26      24.77
C      22.39       4.14      23.83
C      23.21       5.26      23.52
C      22.92       6.50      24.13
C      21.86       6.63      25.04
C       5.98      15.02      26.43
C       5.89      14.57      27.78
C       5.67      14.55      30.01
C       5.71      13.23      29.57
C       5.87      13.24      28.20
C       6.12      14.04      25.41
C       5.01      13.66      24.63
C       5.16      12.77      23.56
C       7.53      12.54      24.07
C       7.38      13.46      25.12
C       5.87      20.42      30.03
C       5.68      20.44      27.80
C       5.72      21.76      28.23
C       5.85      21.76      29.61
C       5.59      20.00      26.45
C       5.68      18.63      26.04
C       5.88      16.38      26.03
C       5.86      16.83      24.71
C       5.70      18.20      24.71
C       5.49      20.99      25.44
C       6.62      21.34      24.67
C       6.52      22.26      23.62
C       4.16      22.57      24.12
C       4.26      21.62      25.15
C       3.46       4.73      38.06
C       5.01       2.92      38.27
C       6.69       1.36      35.31
C       6.37       2.34      36.27
C       5.82       1.99      37.53
C       5.79       0.61      37.86
C       0.83       6.29      35.15
C       0.55       6.49      36.51
C       1.50       6.14      37.49
C       2.75       5.56      37.14
C       3.08       5.54      35.76
C       2.13       5.87      34.78
C       8.18       6.42      38.00
C      15.16       5.53      31.38
C      14.14       5.39      32.37
C      13.37       6.51      32.75
C      12.29       6.36      33.64
C      11.98       5.09      34.19
C      12.78       3.98      33.85
C      13.84       4.13      32.93
C      10.90       4.98      35.11
C      11.14       4.73      36.47
C      10.16       5.05      37.44
C       8.92       5.62      37.07
C       8.62       5.68      35.68
C       9.60       5.39      34.72
C      20.08       5.91      31.37
C      18.74       5.82      31.82
C      16.50       5.61      31.82
C      16.94       5.61      33.15
C      18.31       5.75      33.15
C      21.10       6.01      32.35
C      21.39       7.25      32.98
C      21.88       4.88      32.68
C      22.95       4.99      33.59
C      23.26       6.23      34.20
C      22.45       7.35      33.91
C       6.62       8.23      38.21
C       5.57      14.99      31.35
C       5.46      14.00      32.37
C       4.22      13.38      32.65
C       4.11      12.43      33.69
C       5.23      12.12      34.49
C       6.47      12.73      34.19
C       6.59      13.65      33.14
C       5.15      11.17      35.55
C       5.56      11.54      36.85
C       5.88      10.55      37.80
C       5.83       9.17      37.48
C       5.26       8.82      36.22
C       4.93       9.81      35.27
C      22.56      12.59      38.74
C       5.83      18.16      33.10
C       5.67      16.79      33.09
C       5.65      16.36      31.76
C       5.85      18.61      31.77
C       5.95      19.97      31.37
C       6.09      20.96      32.40
C       7.34      21.55      32.67
C       4.97      21.32      33.18
C       5.12      22.23      34.24
C       6.38      22.81      34.53
C       7.48      22.49      33.72
C       6.48      23.75      35.59
C       6.10      23.38      36.90
C      12.58      22.26      38.83
C       3.19       3.12      39.82
C       3.57       6.57      43.06
C       6.70       3.03      42.81
C       4.98       1.53      45.77
C       5.33       2.50      44.81
C       5.87       2.12      43.55
C       5.87       0.74      43.22
C       0.86       5.15      45.96
C       2.16       5.55      46.34
C       3.14       5.83      45.37
C       2.83       5.77      43.99
C       1.59       5.19      43.62
C       0.61       4.90      44.59
C       0.28       0.36      41.15
C       1.65       0.12      41.44
C       2.61       1.11      41.15
C       2.25       2.35      40.58
C       0.86       2.64      40.47
C       5.16       0.15      45.49
C       8.52       3.19      41.25
C       8.30       4.81      43.02
C      10.94       6.41      45.91
C       9.64       5.99      46.29
C       8.70       5.63      45.31
C       9.02       5.64      43.93
C      10.27       6.20      43.56
C      11.22       6.58      44.54
C      11.38       0.41      39.86
C      11.79       1.70      40.27
C      10.84       2.69      40.56
C       9.45       2.42      40.48
C       9.06       1.18      39.91
C      10.01       0.19      39.60
C      23.39       1.65      40.73
C       6.38      12.29      46.62
C       3.33       8.13      41.25
C       5.10       8.41      42.85
C       6.47      11.36      45.55
C       6.03      11.73      44.26
C       5.75      10.75      43.29
C       5.86       9.37      43.59
C       6.45       9.02      44.83
C       6.75      10.00      45.80
C       0.35      10.73      39.76
C       1.71      11.03      39.54
C       2.71      10.09      39.87
C       2.38       8.84      40.44
C       1.01       8.48      40.48
C      23.50       9.42      40.16
C       8.41       7.99      39.80
C      15.06      14.94      40.70
C      14.07      13.93      40.83
C      13.68      13.16      39.71
C      12.78      12.09      39.86
C      12.23      11.78      41.12
C      12.58      12.58      42.24
C      13.50      13.63      42.10
C      11.31      10.70      41.23
C      11.69       9.41      40.82
C      10.72       8.43      40.52
C       9.34       8.74      40.59
C       8.97       9.98      41.17
C       9.94      10.95      41.48
C      20.03      14.93      40.25
C      18.67      14.53      40.35
C      16.42      14.53      40.59
C      16.85      13.21      40.55
C      18.22      13.20      40.37
C      21.02      13.90      40.12
C      21.38      13.12      41.24
C      22.29      12.06      41.10
C      22.88      11.77      39.85
C      21.62      13.63      38.87
C       5.24      22.97      46.55
C       5.53      23.53      44.18
C      14.62      16.29      40.62
C      14.62      18.52      40.41
C      13.29      18.10      40.46
C      13.29      16.72      40.60
C      15.07      19.86      40.31
C      14.09      20.89      40.20
C      13.49      21.19      38.95
C      12.29      23.08      39.94
C      12.87      22.75      41.19
C      13.75      21.67      41.32
C      18.26      21.58      40.52
C      16.89      21.59      40.38
C      16.44      20.26      40.37
C      18.69      20.26      40.56
C      20.05      19.84      40.64
C      20.49      18.50      40.55
C      20.49      16.27      40.34
C      21.82      16.69      40.37
C      21.82      18.07      40.52
C      21.05      20.86      40.77
C      21.62      21.16      42.03
C      21.42      21.63      39.65
C      22.31      22.71      39.79
C      22.53      22.23      42.16
C      22.86      23.03      41.05
H       0.03       7.39       0.54
H       2.36       5.76       0.73
H       4.75       1.83       0.12
H      12.63       5.94       6.88
H      12.61       6.16       4.37
H      13.59       4.20       2.28
H      11.78       4.31       0.72
H       9.42       5.83       0.68
H      22.71       6.21       6.80
H      22.69       5.91       4.30
H      18.81       6.04       5.58
H      16.50       6.03       5.59
H      18.89       5.80       0.48
H      16.35       6.02       0.49
H      20.84       3.56       1.83
H      21.72       7.68       2.07
H      22.64       3.26       0.26
H       5.79      12.58       6.93
H       5.99      12.56       4.39
H       4.08      14.18       1.61
H       7.02       9.70       0.15
H       8.22      13.84       2.38
H       8.42      12.24       0.60
H      14.38       8.30       1.67
H      12.59       8.41       0.07
H       5.89      17.68       6.77
H       5.86      17.66       4.45
H       6.00      22.79       6.82
H       5.75      22.76       4.29
H       7.53      21.02       1.48
H       3.43      21.51       2.40
H       5.60      18.87       0.56
H       5.87      16.37       0.58
H       3.22      23.11       0.60
H       5.47       0.59      15.36
H       6.48       3.60      12.57
H       7.00       1.93      10.97
H       4.04       5.42      12.04
H       2.42       6.01      10.43
H       1.33       6.48      15.12
H       0.05       4.48      10.49
H      13.60       7.77       9.06
H      11.80       7.52      10.62
H      14.48       3.65       9.41
H      12.69       3.40      10.99
H      12.21       4.83      13.53
H      10.59       5.34      15.19
H       9.47       5.92      10.51
H       7.85       6.42      12.15
H      21.73       4.31       8.94
H      18.96       6.17      10.68
H      16.43       5.94      10.70
H      23.21       7.09      13.49
H       7.60      14.32       9.72
H       7.40      12.76      11.52
H       4.77       9.77      11.13
H       5.32       8.12      12.75
H       6.39      11.18      15.47
H       5.85      12.81      13.85
H       3.30      12.26      10.65
H       3.49      13.84       8.85
H      14.22      13.70      15.50
H      22.75       8.60      11.00
H      20.94       8.43       9.43
H      21.48      14.51      14.76
H      23.04      12.69      14.54
H       4.38      22.73      11.42
H       4.16      21.14       9.65
H       5.98      18.98      10.64
H       5.71      16.47      10.66
H       5.99      22.69      13.75
H       8.27      21.53       8.77
H      12.23      22.74      14.60
H      13.83      20.96      14.81
H       8.49      23.15      10.54
H      21.15      21.80      15.44
H       0.68       3.85      16.69
H       5.26       3.41      21.89
H       6.36       0.39      19.14
H       1.16       5.28      19.25
H       3.93       6.26      22.30
H       3.74       1.20      17.89
H       7.75       5.21      22.45
H       0.59       7.86      17.61
H      12.03       6.93      21.00
H      10.41       6.35      19.37
H       8.07       1.02      16.61
H      11.07       3.81      17.68
H      12.73       2.22      17.14
H      11.19       7.90      16.87
H      22.55       2.20      17.19
H      23.04       4.74      20.91
H       2.07      12.17      15.99
H       3.69      10.52      16.51
H       4.33      12.52      23.01
H       6.46       7.97      21.72
H       5.42      11.06      19.03
H       5.94      12.67      20.67
H      12.68      11.89      15.75
H      13.90      14.55      19.62
H      12.33      12.75      19.87
H       9.78      12.26      18.44
H       8.14      10.62      17.95
H      12.82       9.55      17.34
H      21.10      13.69      18.89
H      22.63      11.86      18.67
H      18.92      12.72      17.02
H      16.42      12.73      17.31
H      22.48       9.52      17.11
H       7.36      22.49      23.08
H       5.83      22.50      20.74
H       2.11      23.30      18.39
H      12.59      19.05      17.12
H      12.58      16.51      17.35
H      14.31      21.87      18.91
H       9.75      23.20      16.07
H      12.74      23.66      18.70
H      22.69      23.61      15.66
H      21.49      21.00      19.57
H      18.96      22.80      17.26
H      16.45      22.80      17.01
H      17.69      18.92      17.20
H      17.68      16.61      17.18
H      22.80      19.01      17.28
H      22.79      16.48      17.05
H      23.06      22.81      19.79
H       4.73       1.74      23.49
H       2.31       5.73      23.94
H      23.48       7.33      23.91
H       9.37       5.78      24.06
H      12.57       5.61      30.16
H      12.56       5.91      27.65
H      13.56       4.05      25.47
H      11.74       4.25      23.94
H      22.58       3.23      23.40
H      22.65       5.88      30.12
H      22.64       5.66      27.61
H      18.76       5.77      28.88
H      16.45       5.76      28.89
H      18.85       5.73      23.77
H      16.32       5.95      23.79
H      21.68       7.54      25.48
H      20.79       3.44      25.00
H       6.99       9.60      23.37
H       5.68      12.38      30.15
H       5.92      12.40      27.61
H       4.09      14.06      24.82
H      12.51       8.38      23.52
H      14.33       8.19      25.09
H       8.21      13.72      25.67
H       8.45      12.15      23.87
H       5.76      17.49      30.06
H       5.79      17.50      27.75
H       5.89      22.59      30.19
H       5.68      22.61      27.66
H       7.53      20.90      24.86
H       3.42      21.39      25.70
H       5.64      18.77      23.87
H       5.91      16.26      23.86
H       3.25      23.01      23.92
H       5.38       0.28      38.74
H       6.39       3.32      35.98
H       6.92       1.67      34.36
H       5.23       7.84      35.93
H       3.95       5.11      35.43
H       2.35       5.69      33.79
H       1.20       6.15      38.47
H      23.50       4.15      33.80
H       7.75       6.11      35.35
H      13.56       7.43      32.36
H      11.74       7.18      33.89
H      14.39       3.30      32.67
H      12.58       3.06      34.24
H      12.08       4.48      36.79
H      10.44       5.00      38.42
H       9.40       5.60      33.74
H      21.69       3.97      32.24
H      18.90       5.78      33.99
H      16.36       5.56      33.99
H      23.09       6.74      36.82
H       7.50      14.08      32.95
H       7.31      12.50      34.74
H       4.68       9.51      34.32
H       6.30      10.87      38.68
H       5.76      12.52      37.07
H       3.20      12.00      33.88
H       3.39      13.61      32.10
H      14.08      13.36      38.79
H      22.64       8.25      34.35
H      20.85       8.08      32.76
H      21.38      14.19      38.05
H      22.98      12.41      37.83
H       4.29      22.47      34.80
H       4.06      20.91      33.00
H       5.88      18.73      33.95
H       5.61      16.22      33.94
H       5.90      22.40      37.12
H       8.16      21.30      32.11
H       8.40      22.90      33.90
H      12.17      22.47      37.91
H      13.73      20.64      38.12
H      21.01      21.44      38.73
H       0.53       3.51      40.03
H       5.33       3.48      45.10
H       6.27       0.41      42.34
H       1.31       5.15      42.64
H       4.01       6.25      45.70
H       3.60       0.84      41.22
H       0.70       7.60      40.90
H      12.16       6.84      44.23
H      10.57       6.20      42.59
H       7.82       5.21      45.64
H      11.05       7.57      40.09
H       8.07       0.93      39.86
H      11.18       3.56      40.99
H      12.77       1.88      40.49
H      22.41       1.84      40.50
H      23.15       4.66      44.27
H       2.00      11.98      39.30
H       3.68      10.41      39.86
H       6.53       8.04      45.11
H       4.28      12.61      46.41
H       5.31      11.07      42.42
H       5.79      12.71      44.05
H      12.53      11.55      39.03
H      13.77      14.17      42.92
H      12.19      12.37      43.16
H       9.63      11.90      41.73
H       7.99      10.26      41.21
H      12.67       9.20      40.60
H      20.95      13.30      42.15
H      22.53      11.51      41.93
H      18.79      12.35      40.30
H      16.28      12.36      40.60
H      22.52       9.18      40.35
H       7.31      22.58      46.27
H       5.70      22.54      43.96
H       1.96      22.94      41.70
H      12.45      18.68      40.43
H      12.45      16.15      40.66
H      14.17      21.47      42.23
H       9.68      23.01      39.35
H      12.65      23.31      42.03
H      22.55      23.26      38.96
H      21.36      20.62      42.86
H      18.83      22.43      40.56
H      16.32      22.44      40.32
H      17.56      18.55      40.49
H      17.55      16.24      40.49
H      22.66      18.64      40.56
H      22.65      16.11      40.33
H      22.92      22.43      43.09
N      15.54       6.04       5.60
N      19.77       6.06       5.57
N      17.67       6.07       7.77
N      17.64       6.01       3.40
N       5.84      15.49       5.63
N       5.87      17.69       7.72
N       5.84      19.85       5.59
N       5.82      17.65       3.49
N       7.22       7.45      14.37
N       4.64       4.33      14.24
N       2.92       4.55      15.76
N       4.40       2.79      15.95
N       2.81       7.16      18.60
N       4.56       7.33      20.09
N       7.13       4.14      20.24
N       7.37       2.63      18.52
N       8.97       7.25      15.87
N       8.83       4.40      18.72
N       7.45       8.97      16.09
N       4.35       8.87      18.39
N      17.68      15.65      17.18
N      15.51      17.77      17.19
N      17.69      19.88      17.18
N      19.87      17.75      17.16
N      15.49       5.76      28.89
N      19.72       5.77      28.87
N      17.62       5.73      31.07
N      17.60       5.80      26.70
N       5.77      15.32      28.89
N       5.75      17.48      31.02
N       5.77      19.68      28.91
N       5.78      17.51      26.79
N       7.11       7.14      37.57
N       4.54       4.02      37.64
N       2.79       4.22      39.12
N       4.28       2.47      39.33
N       2.92       7.04      41.96
N       4.63       7.31      43.49
N       7.20       4.12      43.44
N       7.42       2.57      41.75
N       8.82       6.91      39.09
N       8.95       4.28      41.95
N       7.33       8.65      39.29
N       4.39       8.81      41.76
N      17.55      15.28      40.48
N      15.37      17.40      40.50
N      17.56      19.51      40.47
N      19.74      17.39      40.45
