84

Zn      -3.50       7.28      10.15
Zn       1.64       8.22       9.41
H      -2.18      -0.98       6.19
H      -1.64       9.07       5.58
H      -1.42       7.93       7.79
H       6.17       5.09       2.41
H      -3.64       6.21       4.67
H       7.53       4.02       2.68
H       5.03       4.22       4.46
H       6.40       3.16       4.80
H      -2.27       9.75       1.86
H      -3.45       8.33       3.53
H      -2.21       5.19       4.82
H      -0.52       5.26       2.73
H       0.57       6.85       1.11
H       3.21       2.18       0.37
H       4.17       3.99       1.80
H       6.21       0.90       4.04
H       1.65       9.70       2.46
H       2.96       6.25       0.46
H       3.51       3.36      10.11
H       3.72       5.78       9.50
H       1.03       1.18       5.51
H       1.51       3.13       7.12
H       2.38       1.70       4.53
H      -0.11       3.38       5.13
H       1.26       3.95       4.17
H       2.88      -0.41       9.92
H       1.70       1.53       8.91
H       2.94       3.51       6.16
H       4.63       1.46       5.75
H       5.71      -0.48       6.92
H       8.35      -0.13       2.21
H      -0.97       0.85       4.29
H       1.07       3.73       1.80
H      -3.49       0.18      10.01
C      -4.68       8.53       7.78
C      -1.20      -1.32       6.53
C      -2.51       8.91       6.21
C      -2.39       8.28       7.43
C      -5.82       8.30       8.64
C       4.99       0.29       2.38
C       5.54       1.23       3.25
C       5.24       2.59       3.09
C       4.39       2.94       2.03
C       3.87       1.95       1.20
C      -0.34       7.11       1.66
C      -0.94       6.25       2.57
C      -2.11       6.64       3.24
C      -2.58       7.94       2.99
C      -1.91       8.75       2.09
C       5.84       3.64       3.99
C       6.75       4.60       3.20
C      -2.88       5.67       4.09
C       0.47       5.63      10.08
C       3.94       6.66       0.21
C       2.63       4.01      10.09
C       2.76       5.34       9.75
C      -0.68       6.52      10.05
C      -0.15       2.25       0.83
C       0.40       2.88       1.94
C       0.10       2.42       3.23
C      -0.75       1.30       3.33
C       9.02       0.73       2.17
C       4.81      -0.01       7.30
C       4.20       1.07       6.67
C       3.03       1.64       7.21
C       2.57       1.10       8.41
C       3.23       0.03       9.00
C       0.70       3.05       4.46
C       1.61       2.06       5.21
C       2.27       2.69       6.46
N      -0.16      -1.09       5.73
N      -3.45       8.08       8.26
N       4.17       0.64       1.37
N      -0.82       8.35       1.40
N       4.98       5.82       0.25
N       1.70       6.20       9.76
N       9.31       1.19       0.94
N       4.32      -0.54       8.45
O       6.83      -1.92       8.21
O      -5.59       7.82       9.82
O       1.69       8.43       0.00
O      -0.45       7.77       9.86
