29

K       4.74      26.20       7.46
K      12.74      26.20       7.46
Cd      14.64      26.05       3.95
C      14.82      28.71       9.87
Cd      14.64      26.34      10.97
Cd       8.76      26.20       7.46
O       6.88      27.33       6.44
O      14.29      28.17       3.59
O      14.90      27.72       5.70
O      12.05      28.16       5.56
O      10.62      25.01       6.45
O      14.96      23.89       3.79
O      14.41      24.60       5.84
C       7.56      28.13       5.74
C      14.46      28.52       4.82
C      11.82      29.38       5.64
C       9.92      24.13       5.87
O       6.88      25.06       8.48
O      14.29      24.22      11.33
O      14.90      24.68       9.23
O      12.05      24.23       9.36
O      10.62      27.38       8.47
O      14.96      28.50      11.13
O      14.41      27.79       9.08
C      14.82      23.69       5.06
C       7.56      24.26       9.18
C      14.46      23.87      10.10
C      11.82      23.02       9.28
C       9.92      28.27       9.05
