11

O      10.24       5.96      28.80
Zn       9.38       7.48      29.77
C      11.34       9.57      29.40
C       6.36       7.25      29.25
C       7.28       8.89      28.13
O      10.19       9.12      29.00
N       9.47       7.33      31.78
C       9.55       4.89      29.11
N       7.53       7.84      29.01
C       8.71       6.55      32.54
C      10.27       8.08      32.63
