11

C       3.38      17.89      13.84
N       2.47      17.98      12.88
C       1.33      18.54      13.43
C       3.13      14.74      10.89
O       3.56      15.79      10.25
Zn       2.72      17.43      10.92
C       0.25      18.15       9.32
C      -0.21      16.60      10.80
C       4.78      19.12      10.45
O       3.54      19.02      10.07
N       0.78      17.45      10.32
