11

C       8.72       4.94       4.01
C      10.76       5.59       4.42
C       8.97       1.76       6.96
Zn       9.37       4.48       6.92
O       8.55       6.06       7.79
C      11.84       5.19       8.53
C      12.30       3.64       7.04
N      11.31       4.49       7.53
N       9.62       5.02       4.97
O       8.57       2.82       7.60
C       7.32       6.17       7.40
