130

Cr      11.85       5.81       9.40
Cr       4.39       5.76       9.38
Cr       2.69       2.79       9.29
Cr       9.86       0.60       0.14
Cr       8.18       3.59      18.62
Cr       6.45       0.59       0.02
H       7.90       3.94      14.80
H       6.45       4.84      15.18
H       6.85       1.49      11.98
H       4.01       2.01      15.34
H       4.25       3.77      15.57
H       3.60       4.04      13.39
H       3.53       2.28      13.21
H       6.12       0.59      14.61
H       5.30       0.90      12.55
H       1.33       1.54      12.79
H       0.85       1.13      15.17
H      11.05       5.63      13.24
H      11.50       7.74      12.95
H      11.56       7.94      15.38
H       4.92       8.55      15.25
H       5.14       1.06       6.25
H       6.82       4.77       3.44
H       6.28       5.15       5.80
H       9.39       4.95       5.96
H       9.25       4.97       3.58
H       1.52       1.83       5.79
H       4.82       7.71       3.34
H      11.39       7.35       3.36
H      11.50       6.74       5.74
H      10.53       9.56       2.75
H       1.94       1.85       2.13
H       8.77       4.36      12.73
H       8.55       1.24      15.26
C      13.69       7.38      11.37
C       4.93       3.30      11.22
C      11.80       3.88      11.42
C      13.69       6.84       7.34
C       4.88       3.40       7.39
C      11.26       3.66       7.40
C       6.81       3.97      14.58
C       6.53       4.18      13.05
C       6.58       1.51      14.21
C       4.57       2.90      14.96
C       6.10       2.68      15.10
C       5.46       3.09      12.59
C       6.07       1.68      12.75
C       4.20       3.12      13.51
C      11.85       2.35      13.41
C      11.62       2.13      14.77
C      11.16       3.18      15.57
C      11.08       4.49      15.02
C      11.24       4.67      13.66
C      11.61       3.61      12.84
C      12.45       7.87      13.45
C      12.49       7.91      14.84
C      13.70       8.09      15.51
C      14.86       8.31      14.76
C      14.82       8.37      13.36
C      13.63       7.99      12.70
C       5.49       1.86       5.61
C       5.64       1.63       4.25
C       6.13       2.70       3.43
C       6.44       3.94       4.03
C       6.15       4.16       5.38
C       5.60       3.14       6.15
C      10.00       4.24       5.40
C       9.95       4.27       4.04
C      10.71       3.37       3.28
C      11.61       2.49       3.91
C      11.67       2.48       5.30
C      10.88       3.37       6.04
C      14.81       7.46       5.22
C      14.75       7.54       3.86
C      13.51       7.74       3.23
C      12.34       7.35       3.88
C      12.41       7.02       5.23
C      13.63       7.16       5.93
C      10.45       2.89      16.82
C       6.41       2.38      16.52
C      13.71       8.49      16.92
C      10.25       3.12       1.93
C       6.33       2.54       1.98
C      13.54       8.57       2.03
C       5.15       0.31       3.77
C       1.65       1.60       3.15
C       7.84       4.05      12.27
C       8.09       1.41      14.30
N      10.69       5.62      15.82
N       5.11       8.82      12.64
N       5.15       7.93       5.84
N       6.03       5.54      12.87
O      10.95       4.72      10.88
O      12.64       6.89      10.84
O       3.97       7.08      10.94
O       5.00       4.48      10.74
O       4.10       2.44      10.79
O      12.25       2.88      10.71
O      10.90       4.80       7.86
O      12.59       6.97       8.03
O      14.79       7.16       7.92
O       4.95       4.55       7.94
O       4.05       2.52       7.76
O      12.20       2.95       7.90
O      13.56       4.79       9.36
O      14.85       8.72      17.42
O      10.53       1.74      17.41
O       9.59       3.77      17.14
O       6.87       3.38      17.18
O       5.62       1.56      17.13
O      12.64       8.95      17.44
O      14.70       8.92       1.72
O      10.38       1.93       1.49
O       9.44       3.98       1.44
O       6.73       3.57       1.26
O       5.46       1.76       1.43
O      12.50       9.14       1.52
O       8.14       1.59       0.02
O      11.29       5.86      16.95
O       9.66       6.34      15.46
O      15.85       9.47      11.53
O       6.29       8.75      13.19
O       9.89       9.11       4.53
O       2.08       0.57       3.64
O       6.31       7.55       5.37
O       5.11       9.02       6.56
O       6.59       6.37      12.04
O       5.00       5.93      13.56
O       7.85       3.69      11.10
O       8.81       1.57      13.33
