315

Si       9.29      14.93       0.02
Si      -7.35      14.92      14.33
Si      17.60       0.56      28.64
H       6.72      12.42      39.78
H       7.02      14.11      41.44
H      10.76      11.30      40.17
H      11.09      12.98      41.84
H      11.56      15.75      41.43
H      11.86      17.44      39.77
H       7.82      18.58      40.19
H       7.49      16.90      41.85
H       8.22      17.15       1.48
H       6.59      17.24       3.23
H       5.97      13.08       2.87
H       7.58      12.97       1.15
H      10.36      12.72       1.48
H      11.00      16.90       1.15
H      12.62      16.78       2.86
H      11.99      12.62       3.23
H       8.16       9.93      39.15
H      10.39      19.95      39.18
H       4.44      15.77       4.03
H      14.15      14.09       4.02
H      -8.24      18.40      11.18
H      -6.92      17.29      12.84
H      21.98      15.47      11.59
H      23.27      14.35      13.25
H      25.48      12.56      12.82
H      -6.40      11.48      11.17
H      -3.43      14.43      11.64
H      -4.74      15.52      13.29
H      -4.93      14.73      15.83
H      -4.04      16.10      17.58
H      -7.30      18.75      17.16
H      -8.20      17.40      15.44
H      23.42      15.10      15.80
H      -6.52      12.44      15.43
H      25.79      11.09      17.14
H      22.53      13.73      17.54
H      22.09      18.40      10.57
H      -3.53      11.49      10.57
H      -4.22      18.72      18.34
H      22.71      11.12      18.32
H       4.48      28.37      25.53
H       2.87      27.78      27.19
H      19.97       3.65      25.87
H      18.37       3.09      27.53
H      15.72       2.08      27.17
H      14.12       1.47      25.51
H      -1.35      26.20      25.88
H       0.25      26.78      27.55
H      -0.38      27.28      30.10
H       0.36      25.83      31.85
H       4.26      27.40      31.51
H      20.15       0.09      29.79
H      18.97       2.62      30.09
H      15.04       1.04      29.77
H      14.32       2.51      31.47
H      18.21       4.08      31.82
H      22.49       2.08      24.86
H      -3.89      27.77      24.86
H       2.71      24.71      32.64
H      15.86       5.20      32.61
H      13.74       7.92      35.46
H      15.38       6.38      34.69
H      11.11       6.70      37.74
H       9.92       8.46      38.77
H       9.83      10.57      35.12
H      12.41       3.41      34.31
H      10.16       3.92      34.85
H       9.68       5.43      35.35
H      11.57       8.12      33.22
H      10.83       9.60      33.20
H      17.57      14.55       6.87
H      15.40      13.91       6.09
H      17.82      17.44       9.16
H      19.95      17.59      10.19
H      21.82      16.63       6.53
H      14.33      17.97       5.72
H      15.90      19.66       6.27
H      17.44      19.32       6.76
H      18.83      16.34       4.64
H      20.48      16.24       4.61
H      21.43       7.93      21.18
H      21.95      10.12      20.41
H      23.81       6.26      23.45
H      22.88       4.35      24.49
H      21.09       3.22      20.84
H      26.00       9.03      20.00
H      26.68       6.83      20.55
H      25.62       5.66      21.05
H      22.34       5.95      18.94
H      21.43       4.57      18.91
H       4.81      21.96      35.46
H       3.18      23.51      34.70
H       7.44      23.17      37.76
H       8.63      21.40      38.79
H       8.74      19.31      35.13
H       6.16      26.48      34.34
H       8.41      25.95      34.90
H       8.88      24.44      35.38
H       6.99      21.76      33.24
H       7.74      20.28      33.20
H       1.03      15.31       6.89
H       3.19      15.94       6.11
H       0.76      12.40       9.16
H      -1.36      12.27      10.20
H      -3.23      13.29       6.56
H       4.25      11.88       5.72
H       2.67      10.20       6.27
H       1.13      10.55       6.76
H      -0.24      13.55       4.65
H      -1.89      13.67       4.63
H      -2.91      21.92      21.16
H      -3.45      19.73      20.40
H      -5.29      23.62      23.44
H      -4.32      25.51      24.48
H      -2.49      26.61      20.84
H      -7.49      20.85      20.02
H      -8.16      23.06      20.57
H      -7.08      24.22      21.05
H      -3.79      23.90      18.93
H      -2.85      25.27      18.91
C      12.43      14.70       3.23
C      12.15      15.92       2.58
C      11.21      15.97       1.54
C      10.57      14.80       1.07
C      10.85      13.58       1.73
C      11.80      13.52       2.77
C       8.01      15.06       1.07
C       7.37      13.89       1.54
C       6.44      13.95       2.58
C       6.15      15.16       3.23
C       6.78      16.34       2.77
C       7.73      16.29       1.74
C       9.51      16.20      41.86
C       9.07      13.67      41.86
C       7.82      13.51      41.21
C       7.63      12.52      40.23
C       8.71      11.71      39.84
C       9.97      11.88      40.46
C      10.15      12.85      41.45
C      10.76      16.35      41.21
C      10.95      17.34      40.23
C       9.87      18.16      39.84
C       8.62      18.00      40.47
C       8.43      17.02      41.46
C      24.09      12.30      17.52
C      25.28      11.93      16.86
C      25.80      12.72      15.82
C      25.11      13.87      15.37
C      23.92      14.24      16.04
C      23.39      13.44      17.07
C      -6.61      15.96      15.40
C      -7.30      17.12      15.84
C      -6.79      17.90      16.88
C      -5.60      17.53      17.55
C      -4.91      16.39      17.11
C      -5.43      15.59      16.07
C      -6.35      14.12      13.28
C      -8.34      15.74      13.27
C      -7.85      16.90      12.62
C      -8.61      17.56      11.64
C      23.37      17.04      11.25
C      22.88      15.87      11.87
C      23.64      15.22      12.86
C      -6.82      12.96      12.61
C      -6.04      12.31      11.64
C      -4.80      12.85      11.26
C      -4.33      14.02      11.90
C      -5.10      14.65      12.89
C      16.21       3.41      31.83
C      15.30       2.54      31.18
C      15.73       1.70      30.15
C      17.07       1.73      29.69
C      17.97       2.61      30.34
C      17.54       3.46      31.37
C       1.52      28.17      29.71
C       2.85      28.21      30.18
C       3.28      27.37      31.22
C       2.36      26.50      31.86
C       1.03      26.45      31.40
C       0.61      27.30      30.36
C      16.41       0.10      27.59
C      18.81       1.00      27.59
C      19.59       0.00      26.95
C      20.54       0.34      25.97
C      20.68       1.67      25.56
C      19.89       2.67      26.16
C      18.95       2.34      27.16
C      15.62       1.09      26.94
C      14.68       0.74      25.96
C      -2.06      28.17      25.55
C      -1.27      27.18      26.17
C      -0.34      27.52      27.17
C      14.05       4.74      34.43
C      12.69       4.35      34.58
C      11.70       5.26      35.02
C      12.09       6.59      35.33
C      13.45       6.97      35.22
C      14.41       6.06      34.77
C      11.18       7.56      35.80
C      10.80       7.48      37.16
C      10.08       8.52      37.76
C       9.73       9.68      37.03
C      10.07       9.73      35.66
C      10.79       8.69      35.03
C      14.98       3.85      33.85
C       9.24      10.83      37.70
C      14.66      15.89       5.84
C      15.01      17.25       5.99
C      16.29      17.66       6.43
C      17.24      16.65       6.74
C      16.89      15.29       6.63
C      15.62      14.91       6.18
C      18.54      16.95       7.22
C      18.66      17.32       8.57
C      19.92      17.42       9.18
C      21.10      17.16       8.45
C      20.97      16.84       7.07
C      19.71      16.73       6.44
C      13.43      15.53       5.25
C      22.35      17.02       9.11
C      24.02       9.78      20.14
C      25.04       8.80      20.28
C      24.76       7.49      20.72
C      23.41       7.16      21.04
C      22.40       8.14      20.94
C      22.70       9.43      20.48
C      23.02       5.88      21.52
C      23.29       5.60      22.87
C      22.75       4.46      23.48
C      21.92       3.57      22.75
C      21.70       3.84      21.38
C      22.24       4.99      20.74
C      24.33      11.03      19.54
C      21.17       2.57      23.41
C       4.52      25.14      34.45
C       5.88      25.53      34.61
C       6.87      24.62      35.04
C       6.47      23.28      35.34
C       5.12      22.91      35.23
C       4.15      23.82      34.78
C       7.38      22.30      35.82
C       7.75      22.38      37.18
C       8.47      21.34      37.78
C       8.83      20.19      37.05
C       8.49      20.14      35.67
C       7.77      21.18      35.04
C       3.60      26.04      33.87
C       9.34      19.04      37.70
C       3.92      13.97       5.85
C       3.58      12.60       5.99
C       2.29      12.20       6.43
C       1.34      13.21       6.75
C       1.70      14.57       6.64
C       2.97      14.95       6.19
C       0.04      12.91       7.22
C      -0.07      12.53       8.58
C      -1.33      12.44       9.19
C      -2.51      12.74       8.46
C      -2.39      13.07       7.09
C      -1.13      13.16       6.45
C       5.16      14.32       5.25
C      -3.75      12.90       9.13
C      -5.52      20.09      20.14
C      -6.53      21.07      20.29
C      -6.23      22.39      20.72
C      -4.88      22.70      21.03
C      -3.88      21.71      20.92
C      -4.20      20.42      20.47
C      -4.48      23.98      21.51
C      -4.75      24.27      22.86
C      -4.18      25.39      23.47
C      -3.33      26.26      22.75
C      -3.11      25.99      21.38
C      -3.67      24.86      20.74
C      -5.84      18.84      19.55
C      -2.56      27.24      23.42
N       8.54      10.78      38.87
N      10.04      19.10      38.87
N       5.22      15.22       4.23
N      13.37      14.64       4.22
N      22.64      17.65      10.28
N      -4.06      12.26      10.29
N      -5.09      18.32      18.54
N      23.58      11.52      18.51
N      21.57       2.00      24.58
N      -2.95      27.83      24.58
N       2.79      25.66      32.85
N      15.78       4.25      32.82
N      10.41       4.83      35.09
N      11.11       8.82      33.71
N      16.57      18.99       6.50
N      19.67      16.39       5.12
N      25.77       6.58      20.79
N      21.97       5.20      19.42
N       8.16      25.04      35.12
N       7.46      21.06      33.72
N       2.01      10.87       6.50
N      -1.08      13.51       5.14
N      -7.24      23.30      20.80
N      -3.40      24.65      19.42
O       9.73      12.03      37.29
O      14.85       2.53      34.12
O      23.15      16.00       8.70
O      12.35      16.31       5.52
O      19.88       2.40      23.01
O      25.54      11.57      19.81
O       8.88      17.83      37.28
O       3.74      27.36      34.16
O      -4.53      13.93       8.74
O       6.23      13.54       5.52
O      -1.27      27.39      23.02
O      -7.06      18.30      19.82
