552

Si      24.33       0.73      28.68
Si       9.83       0.71      28.69
Si       0.72       9.85       7.38
Si       0.71      24.35       7.37
Si      24.35       0.73      14.04
Si       9.83       0.71      14.05
Si       0.69      24.35      35.35
Si       0.71       9.84      35.36
H      27.57      29.95      28.58
H      26.24      31.63      27.56
H      25.77      30.76      32.31
H      24.43      32.45      31.31
H      23.69       2.58      30.81
H      24.99       4.26      31.86
H      28.23       3.38      29.31
H      26.95       1.68      28.25
H      24.97       2.77      26.74
H      24.87       2.77      24.37
H      23.45      31.55      24.41
H      23.55      31.54      26.79
H      22.50      31.48      29.69
H      22.38       2.73      28.30
H      20.02       2.74      28.59
H      20.15      31.53      30.00
H       6.57       4.22      28.59
H       7.90       2.54      27.57
H       8.43       3.47      32.30
H       9.77       1.78      31.30
H      10.47      31.64      30.83
H       9.18      29.97      31.90
H       5.94      30.81      29.33
H       7.22      32.50      28.26
H       9.21      31.41      26.75
H       9.32      31.40      24.39
H      10.70       2.63      24.41
H      10.59       2.66      26.78
H      11.67       2.73      29.62
H      11.77      31.45      28.35
H      14.14      31.45      28.56
H      14.04       2.71      29.86
H      29.94       6.61       7.27
H      31.63       7.94       6.26
H      30.75       8.41      11.00
H      32.44       9.75      10.00
H       2.58      10.49       9.50
H       4.25       9.19      10.56
H       3.37       5.95       8.01
H       1.68       7.23       6.95
H       2.77       9.21       5.44
H       2.78       9.32       3.07
H      31.56      10.73       3.10
H      31.54      10.63       5.48
H      31.48      11.68       8.39
H       2.72      11.80       7.00
H       2.74      14.16       7.29
H      31.52      14.03       8.69
H       4.22      27.61       7.28
H       2.54      26.28       6.26
H       3.46      25.75      10.99
H       1.77      24.42       9.99
H      31.63      23.71       9.51
H      29.96      25.01      10.58
H      30.81      28.24       8.01
H      32.50      26.96       6.94
H      31.41      24.97       5.43
H      31.40      24.86       3.06
H       2.63      23.47       3.09
H       2.66      23.59       5.47
H       2.73      22.51       8.31
H      31.45      22.41       7.02
H      31.45      20.04       7.24
H       2.70      20.14       8.55
H      28.24       3.37      13.34
H      26.97       1.68      14.42
H      24.96       4.24      10.83
H      23.67       2.57      11.91
H      24.40      32.44      11.41
H      25.74      30.76      10.39
H      27.61      29.97      14.09
H      26.29      31.65      15.13
H      23.63      31.55      15.97
H      23.63      31.57      18.35
H      24.96       2.81      18.32
H      24.97       2.80      15.95
H      22.40       2.73      14.44
H      22.51      31.47      13.07
H      20.15      31.52      12.78
H      20.04       2.74      14.17
H       5.94      30.81      13.35
H       7.21      32.49      14.44
H       9.21      29.97      10.81
H      10.50      31.64      11.90
H       9.81       1.78      11.44
H       8.48       3.46      10.41
H       6.54       4.20      14.09
H       7.86       2.52      15.13
H      10.52       2.65      15.99
H      10.52       2.61      18.37
H       9.24      31.35      18.32
H       9.23      31.37      15.95
H      11.77      31.45      14.40
H      11.68       2.74      13.16
H      14.05       2.71      12.94
H      14.14      31.45      14.21
H      30.81      28.25      34.65
H      32.50      26.98      35.73
H      29.94      24.97      32.14
H      31.61      23.68      33.22
H       1.75      24.41      32.73
H       3.43      25.75      31.71
H       4.21      27.62      35.41
H       2.53      26.29      36.45
H       2.63      23.63      37.29
H       2.60      23.63      39.67
H      31.35      24.96      39.62
H      31.37      24.97      37.25
H      31.45      22.41      35.74
H       2.71      22.51      34.38
H       2.67      20.16      34.10
H      31.44      20.04      35.47
H       3.37       5.95      34.66
H       1.68       7.22      35.75
H       4.21       9.22      32.13
H       2.54      10.50      33.22
H      32.40       9.82      32.74
H      30.72       8.49      31.71
H      29.98       6.55      35.39
H      31.66       7.87      36.43
H      31.52      10.52      37.29
H      31.56      10.53      39.67
H       2.82       9.25      39.63
H       2.80       9.23      37.26
H       2.73      11.77      35.72
H      31.44      11.69      34.46
H      31.47      14.05      34.24
H       2.73      14.14      35.52
H      26.27      26.37      33.43
H      27.75      25.43      33.55
H      26.83      25.43      32.03
H      29.67      30.96      29.94
H      30.70      30.92      31.38
H      29.12      31.72      31.45
H       7.89       7.86      33.39
H       6.40       8.79      33.52
H       7.31       8.79      32.00
H       4.50       3.21      29.97
H       3.49       3.26      31.43
H       5.07       2.47      31.48
H      26.36       7.91      12.11
H      25.41       6.43      12.24
H      25.41       7.35      10.72
H      30.95       4.51       8.63
H      30.91       3.49      10.07
H      31.71       5.06      10.14
H       7.85      26.29      12.08
H       8.78      27.78      12.21
H       8.78      26.87      10.69
H       3.20      29.68       8.66
H       3.25      30.69      10.11
H       2.46      29.11      10.17
H       7.92       7.83       9.29
H       6.44       8.76       9.15
H       7.33       8.76      10.68
H       4.50       3.20      12.70
H       3.51       3.24      11.24
H       5.09       2.45      11.19
H      26.28      26.35       9.30
H      27.77      25.42       9.17
H      26.87      25.42      10.70
H      29.67      31.01      12.69
H      30.68      30.96      11.24
H      29.10      31.75      11.18
H       7.84      26.28      30.63
H       8.77      27.77      30.49
H       8.76      26.88      32.02
H       3.18      29.68      34.02
H       3.22      30.69      32.56
H       2.43      29.10      32.51
H      26.35       7.93      30.59
H      25.42       6.44      30.45
H      25.42       7.33      31.98
H      30.99       4.51      33.99
H      30.95       3.51      32.53
H      31.74       5.10      32.49
H      16.34       1.85      26.23
H      14.87       0.97      26.65
H      16.30       0.08      26.11
H      18.87      32.49      32.08
H      17.48       0.61      32.71
H      18.89       1.50      32.12
H       1.84      17.84       4.92
H       0.96      19.31       5.34
H       0.07      17.88       4.79
H      32.48      15.32      10.77
H       0.61      16.71      11.40
H       1.50      15.30      10.81
H      16.31       0.10      16.68
H      14.88       0.98      16.12
H      16.34       1.87      16.53
H      18.89       1.48      10.65
H      17.48       0.59      10.06
H      18.87      32.46      10.70
H       1.32      16.31      37.99
H       0.44      14.88      37.44
H      32.31      16.35      37.84
H      32.71      18.90      31.96
H       0.84      17.48      31.37
H       1.72      18.87      32.01
H      20.93       1.03      21.95
H      21.50       0.43      23.50
H      21.28      32.06      22.15
H      27.13       0.43      19.62
H      27.57       1.32      21.08
H      26.90       2.19      19.70
H      13.25       0.40      21.97
H      12.66       1.00      23.52
H      12.88       2.13      22.17
H       7.05       0.95      19.62
H       6.61       0.05      21.08
H       7.29      31.94      19.70
H       1.02      13.25       0.64
H       0.42      12.68       2.19
H      32.05      12.89       0.85
H       0.45       7.06      40.94
H       1.35       6.62      42.40
H       2.21       7.30      41.02
H       0.39      20.93       0.66
H       1.00      21.51       2.20
H       2.12      21.29       0.86
H       0.96      27.13      40.92
H       0.07      27.58      42.38
H      31.96      26.90      41.00
C      19.88       0.78      29.38
C      20.55       1.91      28.87
C      21.94       1.89      28.70
C      22.71       0.75      29.04
C      22.02      32.36      29.52
C      20.62      32.38      29.69
C      24.33       0.75      27.02
C      23.84      32.39      26.30
C      23.77      32.40      24.90
C      24.14       0.79      24.17
C      24.60       1.92      24.87
C      24.68       1.91      26.27
C      25.15       2.01      29.36
C      25.14      32.17      29.31
C      26.08      31.43      28.55
C      26.88      30.44      29.15
C      26.77      30.18      30.53
C      25.84      30.91      31.30
C      25.05      31.91      30.70
C      24.62       2.77      30.43
C      25.39       3.76      31.06
C      26.72       4.02      30.65
C      27.26       3.24      29.61
C      26.50       2.24      28.98
C      14.30       0.69      29.26
C      13.62      32.29      28.83
C      12.22      32.30      28.71
C      11.46       0.69      29.03
C      12.16       1.85      29.46
C      13.56       1.84      29.59
C       9.83       0.68      27.02
C      10.31       1.80      26.30
C      10.38       1.78      24.90
C      10.03       0.62      24.17
C       9.57      32.25      24.88
C       9.49      32.27      26.29
C       9.01      32.20      29.38
C       9.03       2.03      29.31
C       8.08       2.75      28.56
C       7.28       3.74      29.16
C       7.40       4.02      30.53
C       8.35       3.31      31.30
C       9.14       2.31      30.70
C       9.54      31.45      30.46
C       8.78      30.46      31.10
C       7.46      30.19      30.68
C       6.91      30.96      29.63
C       7.67      31.95      29.00
C       0.77      14.30       8.07
C       1.90      13.63       7.56
C       1.89      12.24       7.40
C       0.74      11.48       7.73
C      32.36      12.16       8.21
C      32.38      13.56       8.39
C       0.75       9.85       5.71
C      32.39      10.34       4.99
C      32.40      10.41       3.59
C       0.79      10.04       2.86
C       1.92       9.58       3.57
C       1.91       9.50       4.97
C       2.00       9.03       8.06
C      32.17       9.04       8.01
C      31.42       8.11       7.24
C      30.43       7.31       7.84
C      30.17       7.42       9.22
C      30.89       8.35       9.99
C      31.90       9.13       9.40
C       2.76       9.56       9.13
C       3.75       8.79       9.76
C       4.02       7.47       9.35
C       3.23       6.92       8.31
C       2.23       7.68       7.69
C       0.68      19.89       7.95
C      32.28      20.56       7.51
C      32.29      21.96       7.39
C       0.69      22.72       7.71
C       1.84      22.02       8.14
C       1.84      20.62       8.27
C       0.68      24.35       5.70
C       1.80      23.87       4.98
C       1.79      23.79       3.58
C       0.63      24.15       2.86
C      32.26      24.61       3.56
C      32.27      24.69       4.97
C      32.19      25.17       8.05
C       2.02      25.15       8.00
C       2.75      26.10       7.24
C       3.74      26.90       7.84
C       4.02      26.78       9.22
C       3.30      25.83       9.98
C       2.30      25.04       9.38
C      31.44      24.64       9.13
C      30.45      25.41       9.78
C      30.18      26.73       9.36
C      30.95      27.28       8.31
C      31.95      26.51       7.68
C      19.88       0.77      13.39
C      20.63      32.37      13.08
C      22.02      32.36      13.25
C      22.72       0.74      13.71
C      21.95       1.89      14.05
C      20.56       1.90      13.90
C      24.39       0.76      15.70
C      24.73       1.93      16.43
C      24.72       1.95      17.83
C      24.35       0.79      18.56
C      23.93      32.41      17.85
C      23.94      32.40      16.44
C      25.15      32.17      13.40
C      25.16       2.00      13.34
C      26.51       2.24      13.70
C      27.27       3.23      13.05
C      26.70       4.01      12.02
C      25.37       3.75      11.62
C      24.61       2.76      12.27
C      25.04      31.90      12.01
C      25.82      30.91      11.40
C      26.77      30.19      12.15
C      26.90      30.46      13.53
C      26.11      31.44      14.14
C      14.30       0.69      13.52
C      13.56       1.85      13.20
C      12.16       1.85      13.32
C      11.46       0.69      13.74
C      12.22      32.30      14.06
C      13.62      32.29      13.94
C       9.79       0.66      15.71
C       9.46      32.24      16.43
C       9.47      32.22      17.83
C       9.82       0.61      18.57
C      10.23       1.77      17.86
C      10.22       1.79      16.46
C       9.03       2.02      13.41
C       9.02      32.19      13.34
C       7.67      31.95      13.70
C       6.92      30.96      13.06
C       7.48      30.19      12.01
C       8.80      30.46      11.61
C       9.56      31.45      12.27
C       9.17       2.31      12.03
C       8.39       3.31      11.42
C       7.41       4.01      12.16
C       7.26       3.72      13.53
C       8.06       2.74      14.15
C       0.65      19.89      34.70
C       1.81      20.63      34.39
C       1.83      22.03      34.56
C       0.68      22.72      35.02
C      32.29      21.96      35.36
C      32.28      20.56      35.20
C       0.65      24.39      37.01
C      32.24      24.73      37.73
C      32.22      24.72      39.14
C       0.61      24.35      39.87
C       1.76      23.93      39.16
C       1.77      23.94      37.76
C       2.01      25.15      34.71
C      32.18      25.17      34.65
C      31.94      26.52      35.01
C      30.95      27.28      34.36
C      30.17      26.71      33.33
C      30.43      25.38      32.93
C      31.42      24.62      33.58
C       2.28      25.04      33.33
C       3.28      25.83      32.72
C       4.00      26.78      33.48
C       3.72      26.91      34.85
C       2.74      26.11      35.46
C       0.73      14.31      34.83
C      32.33      13.57      34.51
C      32.32      12.17      34.63
C       0.72      11.47      35.05
C       1.88      12.22      35.37
C       1.89      13.62      35.26
C       0.75       9.79      37.02
C       1.93       9.46      37.74
C       1.94       9.47      39.15
C       0.79       9.83      39.88
C      32.40      10.24      39.17
C      32.38      10.23      37.76
C      32.16       9.04      34.72
C       1.98       9.03      34.66
C       2.23       7.68      35.02
C       3.22       6.92      34.37
C       3.99       7.48      33.33
C       3.72       8.81      32.93
C       2.73       9.57      33.58
C      31.87       9.17      33.34
C      30.88       8.39      32.72
C      30.18       7.42      33.46
C      30.46       7.27      34.84
C      31.44       8.07      35.45
C      27.16      26.04      32.88
C      27.89      27.22      32.37
C      27.66      29.29      31.17
C      29.01      29.61      31.43
C      29.66      30.87      31.03
C      29.26      27.53      32.62
C       7.00       8.18      32.85
C       6.27       6.99      32.35
C       6.51       4.91      31.17
C       5.16       4.58      31.45
C       4.52       3.31      31.06
C       4.91       6.67      32.62
C      26.03       7.03      11.56
C      27.21       6.29      11.06
C      29.28       6.53       9.86
C      29.60       5.17      10.12
C      30.86       4.52       9.72
C      27.51       4.93      11.31
C       8.17      27.18      11.53
C       6.98      27.91      11.04
C       4.90      27.67       9.86
C       4.57      29.02      10.13
C       3.30      29.66       9.75
C       6.67      29.27      11.30
C       7.03       8.15       9.83
C       6.30       6.96      10.32
C       6.53       4.88      11.51
C       5.18       4.56      11.23
C       4.53       3.29      11.61
C       4.94       6.65      10.05
C      27.17      26.03       9.84
C      27.90      27.23      10.33
C      27.66      29.31      11.51
C      29.01      29.64      11.22
C      29.65      30.91      11.61
C      29.26      27.54      10.06
C       8.15      27.18      31.17
C       6.96      27.91      31.65
C       4.87      27.67      32.83
C       4.55      29.01      32.55
C       3.27      29.66      32.93
C       6.64      29.27      31.38
C      26.03       7.03      31.13
C      27.22       6.30      31.62
C      29.30       6.54      32.81
C      29.62       5.19      32.52
C      30.90       4.54      32.91
C      27.53       4.94      31.35
C      15.96       0.93      26.69
C      16.48       0.82      28.07
C      18.47       0.76      29.41
C      17.69       0.67      30.59
C      18.26       0.62      31.95
C      15.70       0.73      29.25
C       0.93      18.22       5.38
C       0.81      17.70       6.76
C       0.75      15.71       8.11
C       0.66      16.49       9.28
C       0.62      15.92      10.65
C       0.72      18.48       7.94
C      15.97       0.95      16.08
C      16.48       0.83      14.70
C      18.48       0.75      13.36
C      17.69       0.65      12.18
C      18.26       0.60      10.82
C      15.70       0.72      13.52
C       0.47      15.97      37.39
C       0.59      16.49      36.01
C       0.67      18.48      34.67
C       0.77      17.70      33.49
C       0.82      18.27      32.13
C       0.70      15.71      34.83
C      21.60       0.31      22.42
C      22.98       0.53      21.94
C      24.34       0.80      19.97
C      25.47       1.06      20.78
C      26.84       1.27      20.26
C      24.12       0.79      22.75
C      12.57       1.12      22.44
C      11.19       0.88      21.95
C       9.84       0.60      19.98
C       8.70       0.33      20.79
C       7.34       0.11      20.27
C      10.06       0.61      22.76
C       0.31      12.58       1.12
C       0.54      11.20       0.64
C       0.80       9.85      41.29
C       1.06       8.72      42.10
C       1.28       7.35      41.59
C       0.80      10.06       1.45
C       1.11      21.60       1.13
C       0.88      22.98       0.64
C       0.60      24.35      41.28
C       0.34      25.48      42.09
C       0.13      26.85      41.57
C       0.62      24.12       1.44
N      27.16      28.13      31.67
N      29.73      28.71      32.14
N       7.00       6.08      31.66
N       4.44       5.48      32.15
N      28.12       7.02      10.36
N      28.69       4.45      10.83
N       6.07      27.18      10.34
N       5.48      29.74      10.84
N       7.02       6.05      11.02
N       4.46       5.46      10.51
N      27.17      28.14      11.03
N      29.73      28.73      10.52
N       6.05      27.18      32.35
N       5.45      29.74      31.84
N      28.13       7.03      32.32
N      28.72       4.47      31.81
N      17.83       0.83      28.22
N      16.34       0.66      30.45
N       0.83      16.35       6.91
N       0.65      17.84       9.14
N      17.83       0.84      14.55
N      16.34       0.65      12.33
N       0.58      17.84      35.86
N       0.77      16.35      33.64
N      23.16       0.55      20.60
N      25.30       1.03      22.13
N      11.02       0.86      20.61
N       8.88       0.36      22.13
N       0.54      11.03      41.91
N       1.05       8.88       0.83
N       0.85      23.17      41.91
N       0.38      25.30       0.81
