12

Cd      24.22       9.70      20.57
C      22.75       7.38      22.20
C      25.96      11.25      18.23
N      23.79       7.57      21.36
O      22.41       9.40      19.17
C      24.38      10.81      23.07
C      24.48       6.48      20.95
C      24.66      12.63      19.55
N      25.12      11.40      19.27
C      22.98       8.62      18.32
O      25.40      10.17      22.65
O      23.38      11.10      22.32
