69

H       6.56       5.33       1.40
H       4.40       3.27      -0.38
H       3.43       2.40      -1.60
H       0.96       0.56       3.03
H       5.60       0.06      -2.00
H       4.50       0.87      -3.15
H       5.65       4.36      -2.18
H       6.58       3.41      -3.38
H       1.82       5.70      -6.49
H       2.48       3.67      -5.17
H       8.79       1.71       0.68
H       2.02       0.09       0.80
H       7.59       5.51       3.68
H       6.80       1.35      -0.29
H       7.76       2.09      -1.60
H       5.15       2.90       1.74
H       4.07       3.35       3.95
H       5.00      -3.12      -5.20
H       8.00       0.78      -5.77
H       8.01      -1.07      -7.45
H       5.32       7.74      -5.08
H       4.92      -1.29      -3.55
H       6.00       5.73      -3.79
H       9.87       1.96       2.92
C       7.29       4.60       1.75
C       1.81       2.32       4.93
C       9.29       3.70       4.84
C       2.45       1.98       3.61
C       5.59       2.22      -1.86
C       4.34       2.35      -0.98
C       1.88       1.05       2.73
C       5.49       0.93      -2.66
C       5.65       3.45      -2.79
C       6.51      -3.34      -7.35
C       2.73       5.69      -5.88
C       3.09       4.57      -5.16
C       7.59       3.51       0.92
C       8.54       2.56       1.32
C       4.26       4.58      -4.38
C       2.47       0.79       1.50
C       7.87       4.70       3.01
C       6.85       2.20      -0.99
C       4.22       2.39       2.01
C       3.63       2.64       3.25
C       5.60      -2.23      -5.35
C       3.53       6.85      -5.85
C       8.79       3.73       3.44
C       3.64       1.47       1.14
C       3.15       8.08      -6.61
C       6.45      -2.19      -6.45
C       7.32      -0.07      -5.67
C       7.33      -1.09      -6.60
C       6.45      -0.12      -4.57
C       4.70       6.84      -5.09
C       5.57      -1.21      -4.41
C       5.08       5.71      -4.36
C       9.14       2.69       2.57
O       7.50      -3.53      -8.12
O       6.89       3.45      -0.26
O      10.15       2.81       5.11
O       2.46       3.06       5.72
O       0.63       1.83       5.12
O       3.91       9.08      -6.56
O       8.73       4.51       5.68
O       2.05       8.01      -7.28
O       4.51       3.43      -3.66
O       6.51       0.91      -3.68
O       5.58      -4.27      -7.34
O       4.23       1.20      -0.10
