288

C       4.15       6.06       4.95
C       4.95       4.14       6.06
C       6.06       4.95       4.14
C      17.01      15.10       4.95
C      16.20      17.01       6.06
C      15.10      16.20       4.14
C      17.01       6.06      16.20
C      16.20       4.14      15.09
C      15.10       4.95      17.01
C       4.15      15.10      16.20
C       4.95      17.01      15.10
C       6.06      16.20      17.01
C      17.38      15.45      16.53
C      16.53      17.38      15.44
C      15.45      16.53      17.38
C       3.77       5.71      16.53
C       4.62       3.77      15.45
C       5.71       4.62      17.38
C       3.77      15.45       4.62
C       4.62      17.38       5.71
C       5.71      16.53       3.77
C      17.38       5.71       4.62
C      16.53       3.77       5.71
C      15.45       4.62       3.77
C       0.67      10.58       5.28
C       1.40       9.43       5.67
C       2.81       9.41       5.70
C       3.52      10.59       5.39
C       2.83      11.79       5.06
C       1.42      11.74       4.96
C      20.48      10.57       5.28
C      19.73       9.41       4.96
C      18.32       9.37       5.06
C      17.63      10.56       5.39
C      18.35      11.75       5.70
C      19.76      11.72       5.67
C      17.67      13.04       6.02
C       3.63      13.04       4.86
C      17.53       8.11       4.86
C       3.48       8.12       6.02
C      20.48      10.58      15.87
C      19.76       9.43      15.48
C      18.35       9.41      15.45
C      17.63      10.59      15.77
C      18.32      11.79      16.10
C      19.73      11.74      16.20
C       0.67      10.57      15.87
C       1.42       9.41      16.20
C       2.83       9.37      16.10
C       3.52      10.56      15.77
C       2.81      11.75      15.45
C       1.40      11.72      15.48
C       3.48      13.04      15.13
C      17.53      13.04      16.30
C       3.63       8.11      16.30
C      17.67       8.12      15.13
C       5.28       0.67      10.58
C       5.68       1.40       9.43
C       5.70       2.81       9.41
C       5.39       3.52      10.59
C       5.06       2.83      11.79
C       4.96       1.42      11.74
C       5.28      20.48      10.57
C       4.96      19.73       9.41
C       5.06      18.32       9.37
C       5.39      17.63      10.57
C       5.70      18.35      11.75
C       5.68      19.76      11.72
C       6.02      17.67      13.04
C       4.86       3.63      13.04
C       4.86      17.53       8.11
C       6.02       3.48       8.12
C      15.87      20.48      10.58
C      15.48      19.76       9.43
C      15.45      18.35       9.40
C      15.76      17.63      10.59
C      16.10      18.32      11.79
C      16.20      19.73      11.74
C      15.87       0.67      10.57
C      16.20       1.42       9.41
C      16.10       2.83       9.37
C      15.76       3.52      10.57
C      15.45       2.81      11.75
C      15.48       1.40      11.72
C      15.13       3.48      13.04
C      16.30      17.53      13.04
C      16.30       3.63       8.11
C      15.13      17.67       8.12
C      10.58       5.27       0.67
C       9.43       5.66       1.40
C       9.41       5.69       2.81
C      10.59       5.38       3.52
C      11.79       5.05       2.83
C      11.74       4.95       1.42
C      10.57       5.27      20.48
C       9.41       4.95      19.73
C       9.37       5.05      18.32
C      10.56       5.38      17.63
C      11.75       5.69      18.35
C      11.72       5.66      19.76
C      13.03       6.02      17.67
C      13.04       4.85       3.63
C       8.11       4.85      17.53
C       8.12       6.02       3.48
C      10.58      15.89      20.48
C       9.43      15.49      19.76
C       9.41      15.46      18.35
C      10.59      15.77      17.63
C      11.79      16.11      18.32
C      11.74      16.21      19.73
C      10.57      15.89       0.67
C       9.41      16.21       1.42
C       9.37      16.11       2.83
C      10.56      15.77       3.52
C      11.75      15.46       2.81
C      11.72      15.49       1.40
C      13.03      15.14       3.48
C      13.04      16.30      17.53
C       8.11      16.30       3.63
C       8.12      15.14      17.67
H       4.84       2.33       6.84
H       6.84       4.84       2.33
H       2.33       6.84       4.84
H      16.31      18.82       6.84
H      14.32      16.31       2.33
H      18.82      14.32       4.84
H      16.31       2.33      14.32
H      14.32       4.84      18.82
H      18.82       6.84      16.31
H       4.84      18.82      14.32
H       6.83      16.31      18.82
H       2.33      14.32      16.31
H      15.80      18.95      14.45
H      14.45      15.80      18.95
H      18.95      14.45      15.80
H       5.35       2.21      14.45
H       6.70       5.35      18.95
H       2.21       6.70      15.80
H       5.35      18.95       6.71
H       6.70      15.80       2.21
H       2.21      14.45       5.35
H      15.80       2.21       6.71
H      14.45       5.35       2.21
H      18.95       6.70       5.36
H       0.89       8.59       5.96
H      20.26      12.56       5.96
H       5.19      10.32       4.55
H      15.96      10.84       4.55
H       0.93      12.58       4.64
H      20.22       8.57       4.64
H      18.09      13.45       6.95
H      16.61      12.88       6.21
H       4.25      13.17       5.75
H       4.29      12.86       4.00
H      16.90       7.99       5.75
H      16.86       8.29       4.01
H       4.55       8.28       6.21
H       3.06       7.70       6.94
H      20.26       8.59      15.19
H       0.89      12.56      15.19
H      15.96      10.32      16.60
H       5.19      10.84      16.60
H      20.22      12.58      16.51
H       0.93       8.57      16.51
H       3.06      13.45      14.21
H       4.55      12.88      14.95
H      16.90      13.17      15.40
H      16.86      12.86      17.15
H       4.25       7.99      15.40
H       4.29       8.29      17.15
H      16.61       8.28      14.95
H      18.09       7.70      14.21
H       5.97       0.89       8.59
H       5.97      20.26      12.56
H       4.55       5.19      10.32
H       4.55      15.96      10.84
H       4.64       0.93      12.58
H       4.64      20.22       8.57
H       6.95      18.10      13.45
H       6.21      16.61      12.88
H       5.75       4.25      13.17
H       4.01       4.29      12.86
H       5.75      16.91       7.99
H       4.01      16.86       8.29
H       6.21       4.55       8.28
H       6.95       3.06       7.70
H      15.19      20.26       8.59
H      15.19       0.89      12.56
H      16.60      15.96      10.32
H      16.60       5.19      10.84
H      16.51      20.22      12.58
H      16.51       0.93       8.57
H      14.21       3.06      13.45
H      14.94       4.55      12.88
H      15.40      16.91      13.17
H      17.15      16.86      12.86
H      15.40       4.25       7.99
H      17.15       4.29       8.29
H      14.95      16.61       8.28
H      14.21      18.09       7.70
H       8.59       5.95       0.89
H      12.56       5.95      20.26
H      10.32       4.54       5.20
H      10.83       4.54      15.96
H      12.58       4.63       0.93
H       8.57       4.63      20.22
H      13.45       6.94      18.09
H      12.87       6.20      16.61
H      13.17       5.74       4.25
H      12.87       4.00       4.29
H       7.99       5.74      16.91
H       8.29       4.00      16.86
H       8.28       6.20       4.55
H       7.71       6.94       3.06
H       8.59      15.20      20.26
H      12.56      15.20       0.89
H      10.32      16.61      15.96
H      10.83      16.61       5.20
H      12.58      16.52      20.22
H       8.57      16.52       0.93
H      13.45      14.21       3.06
H      12.87      14.96       4.55
H      13.17      15.41      16.91
H      12.87      17.15      16.86
H       7.99      15.41       4.25
H       8.29      17.15       4.29
H       8.28      14.96      16.61
H       7.71      14.21      18.09
N       4.06       5.15       5.96
N       5.96       4.05       5.15
N       5.15       5.96       4.06
N       4.89       3.30       7.17
N       7.17       4.88       3.30
N       3.30       7.17       4.89
N      17.10      16.00       5.96
N      15.19      17.10       5.15
N      16.00      15.19       4.06
N      16.27      17.85       7.17
N      13.98      16.27       3.30
N      17.85      13.98       4.89
N      17.10       5.15      15.19
N      15.19       4.05      16.00
N      16.00       5.96      17.10
N      16.27       3.30      13.98
N      13.98       4.88      17.85
N      17.85       7.17      16.27
N       4.06      16.00      15.19
N       5.96      17.10      16.00
N       5.15      15.19      17.10
N       4.89      17.85      13.98
N       7.17      16.27      17.85
N       3.30      13.98      16.27
N      17.44      16.37      15.53
N      15.54      17.44      16.37
N      16.37      15.54      17.44
N      16.55      18.25      14.32
N      14.33      16.55      18.25
N      18.25      14.32      16.54
N       3.71       4.78      15.53
N       5.62       3.71      16.37
N       4.78       5.62      17.44
N       4.61       2.90      14.32
N       6.83       4.60      18.25
N       2.90       6.83      16.54
N       3.71      16.37       5.62
N       5.62      17.44       4.78
N       4.78      15.54       3.72
N       4.61      18.25       6.83
N       6.83      16.55       2.90
N       2.90      14.32       4.61
N      17.44       4.78       5.62
N      15.54       3.71       4.78
N      16.37       5.62       3.72
N      16.55       2.90       6.83
N      14.33       4.60       2.90
N      18.25       6.83       4.61
O       4.88      10.59       5.44
O      16.27      10.56       5.44
O      16.27      10.59      15.71
O       4.88      10.56      15.71
O       5.44       4.88      10.59
O       5.44      16.27      10.56
O      15.71      16.27      10.59
O      15.71       4.88      10.56
O      10.59       5.44       4.88
O      10.56       5.44      16.27
O      10.59      15.72      16.27
O      10.56      15.72       4.88
