156

Ca       0.03       9.30       2.61
Ca       5.95       2.60       9.31
Ca       3.00       8.56       8.56
Ca       8.89       3.36       3.35
H       2.42      11.51       1.08
H       2.31      10.19      10.94
H       2.69       7.73       0.81
H       4.83       7.47      11.68
H       4.91       8.85       1.66
H       5.94       9.64       0.45
H       2.50       8.95       2.45
H       0.35       9.95      11.34
H       1.31       7.55      10.83
H       8.34       0.42      10.82
H       8.18       1.72       0.97
H       8.63       4.19      11.11
H      10.70       4.45       0.23
H      10.83       3.07      10.24
H       0.04       2.28      11.45
H       8.42       2.98       9.47
H       6.22       1.96       0.57
H       7.17       4.35       1.08
H       5.39       7.04       6.36
H       5.23       5.00       7.68
H       5.68       6.78      10.13
H       7.78       5.71      10.40
H       7.87       7.61       9.00
H       8.92       6.40       8.23
H       5.48       8.41       8.91
H       3.28       5.42       7.93
H       4.24       4.89      10.31
H      11.28       4.86       5.55
H      11.17       6.90       4.23
H      11.63       5.13       1.78
H       1.89       6.20       1.54
H       1.95       4.29       2.90
H       3.00       5.47       3.72
H      11.35       3.50       2.99
H       9.21       6.53       3.93
H      10.19       7.02       1.59
H       0.62       6.37       7.05
H       0.73       7.68       5.01
H       0.27      10.13       6.78
H      10.01      10.37       5.71
H       9.95       9.02       7.63
H       8.90       8.19       6.44
H       0.55       8.92       8.41
H       2.69       7.98       5.38
H       1.71      10.33       4.89
H       6.51       5.55       4.87
H       6.66       4.23       6.91
H       6.21       1.78       5.13
H       4.12       1.52       6.21
H       4.03       2.91       4.30
H       2.98       3.69       5.51
H       6.42       3.00       3.51
H       8.62       3.98       6.49
H       7.66       1.60       7.03
H       9.48      10.83       0.40
H       9.59       0.97       1.72
H       9.20      11.10       4.18
H       7.06       0.24       4.45
H       6.99      10.25       3.06
H       5.95      11.46       2.27
H       9.40       9.47       2.96
H      11.55       0.57       1.97
H      10.59       1.08       4.37
H       3.55       1.09      11.50
H       3.72      10.95      10.19
H       3.27       0.81       7.73
H       1.20      11.68       7.46
H       1.07       1.67       8.85
H      11.86       0.46       9.64
H       3.48       2.45       8.94
H       5.68      11.35       9.95
H       4.73      10.83       7.56
C       2.82      10.48       1.10
C       2.20       9.66      11.89
C       2.86       8.30      11.79
C       4.37       8.46      11.50
C       4.91       9.37       0.69
C       8.75       1.44      10.81
C       8.07       2.25       0.02
C       8.73       3.62       0.13
C      10.24       3.45       0.41
C      10.84       2.55      11.22
C       5.79       7.06       7.38
C       5.14       5.95       8.22
C       5.80       5.84       9.58
C       7.31       5.54       9.40
C       7.88       6.64       8.49
C      11.69       4.84       4.53
C      11.06       5.96       3.70
C      11.74       6.07       2.34
C       1.41       6.37       2.53
C       1.96       5.25       3.43
C       0.21       7.39       7.07
C       0.83       8.22       5.95
C       0.16       9.57       5.84
C      10.49       9.38       5.55
C       9.93       8.48       6.66
C       6.11       4.53       4.86
C       6.76       3.70       5.96
C       6.09       2.34       6.08
C       4.59       2.51       6.37
C       4.02       3.42       5.28
C       9.08      10.81       1.43
C       9.69       0.02       2.25
C       9.04       0.13       3.62
C       7.53       0.41       3.45
C       6.99      11.22       2.54
C       3.15       1.10      10.48
C       3.83      11.90       9.66
C       3.17      11.78       8.29
C       1.66      11.51       8.46
C       1.06       0.70       9.36
O       2.54       9.97       2.39
O       0.74       9.53       0.21
O       2.28       7.55      10.69
O       4.59       8.93      10.20
O       4.21      10.63       0.82
O       8.48       1.96       9.52
O       6.67       2.39      11.71
O       8.14       4.36       1.22
O      10.49       2.99       1.70
O      10.13       1.29      11.10
O       5.52       8.36       7.89
O       3.71       6.18       8.37
O       5.20       4.76      10.34
O       7.54       4.24       8.92
O       7.18       6.75       7.23
O      11.39       3.54       4.01
O       9.63       5.74       3.54
O      11.15       7.15       1.57
O       1.64       7.67       3.00
O       1.24       5.11       4.69
O       0.51       7.90       8.37
O       2.27       8.37       6.17
O       0.74      10.34       4.76
O      10.26       8.91       4.25
O      10.65       7.23       6.81
O       6.37       4.02       3.55
O       8.19       3.55       5.73
O       6.69       1.57       7.15
O       4.36       2.99       7.67
O       4.72       4.68       5.16
O       9.36       9.52       1.94
O      11.16      11.70       2.38
O       9.62       1.22       4.36
O       7.30       1.71       2.99
O       7.69      11.09       1.28
O       3.42       2.40       9.96
O       5.23       0.21       9.53
O       3.76      10.69       7.55
O       1.41      10.21       8.92
O       1.76       0.82      10.62
