30

C       6.11       0.56       9.95
C       8.75       2.77       8.31
C       7.69       2.40       9.10
C       7.22       1.09       9.05
C       7.84       0.23       8.17
C       8.90       0.65       7.43
C       1.87       3.37       8.39
C       2.95       3.49       9.43
C       3.04       4.66      10.18
C       3.99       4.76      11.18
C       3.82       2.44       9.66
C       4.79       2.53      10.67
C       4.85       3.71      11.42
H       5.35       0.30       9.38
H       6.45      -0.26      10.39
H       5.89       1.35      11.80
H       9.06       3.67       8.37
H       7.28       3.03       9.68
H       7.53      -0.67       8.09
H       9.33       0.03       6.85
H       2.46       5.38      10.00
H       3.76       1.65       9.13
H       5.50       3.79      12.11
C       4.04       6.02      12.01
N       5.64       1.47      10.97
N       9.38       1.92       7.47
O       1.88       2.32       7.65
O       1.01       4.25       8.28
O       5.02       6.10      12.83
O       3.17       6.88      11.88
