17

H       2.77      10.88       6.72
H       0.97      11.02       4.97
O       3.76      11.20       9.04
O       2.22      11.27      10.65
C      -0.57      11.33       6.45
C       2.53      11.22       9.39
C       1.44      11.21       8.38
N      -1.76      11.47       5.73
C       0.75      11.12       6.03
C       1.74      11.06       7.01
C      -0.87      11.44       7.83
C       0.12      11.39       8.81
C      -2.73      11.63       6.64
N      -2.25      11.62       7.90
H      -3.77      11.76       6.41
H      -2.86      11.60       8.72
H      -0.12      11.50       9.86
