17

C       0.42       1.84      11.45
C      -0.67       0.83      11.46
C      -0.38      -0.55      11.61
H      -5.88      -1.16      10.90
H      -4.98       1.16      11.07
H      -2.23       2.31      11.16
O       1.64       1.48      11.47
O       0.12       3.09      11.40
H       0.65      -0.83      11.79
H      -1.14      -2.58      11.65
C      -1.36      -1.53      11.54
C      -2.69      -1.11      11.33
C      -2.98       0.27      11.23
C      -2.00       1.25      11.27
C      -4.84      -0.92      11.04
N      -3.87      -1.83      11.20
N      -4.36       0.34      11.05
