11

Cd       1.33      10.87      16.40
O       2.78       9.42      15.16
C       0.58      12.99      13.95
C       2.43      13.60      15.21
O       2.85      12.15      17.71
C      -0.15       8.15      17.43
C       1.72       8.70      18.70
C       2.05      12.30      18.72
N       1.34      12.83      15.07
N       0.93       8.92      17.61
C       1.99       9.31      14.15
