16

O       0.74       1.67       6.94
O      -0.86       0.75       8.20
O      -1.16       5.56       4.68
H      -4.61       3.85       7.24
H       0.08       3.61       5.70
C      -0.45       1.66       7.37
C      -1.42       2.70       6.95
C      -1.74       4.70       5.55
C      -0.95       3.66       6.04
O      -3.36       1.90       8.27
O      -5.26       5.79       6.00
O      -3.66       6.71       4.74
C      -4.07       5.80       5.57
C      -3.10       4.76       6.00
C      -2.78       2.75       7.39
C      -3.57       3.80       6.90
