48

C       6.84      35.52      16.17
C       9.22      35.18      15.53
C      10.37      34.40      15.46
O       6.93      36.71      15.67
O       5.79      35.11      16.79
O      11.67      24.62      12.00
O      18.74      36.70      15.69
O      19.88      35.10      16.80
O      13.92      24.62      12.01
H      10.66      28.69      14.43
H      10.67      30.48      15.09
H       9.13      31.47      16.69
H      10.65      26.59      13.18
C      14.06      32.27      15.76
C      15.31      33.05      15.87
H       7.08      32.87      16.85
C      14.02      28.23      14.15
H       9.24      36.21      15.20
H      11.28      34.84      15.06
C      14.04      30.94      15.33
C      16.52      32.50      16.35
C      14.02      27.04      13.44
C      17.65      34.64      16.04
H      12.84      33.93      16.40
C      17.66      33.29      16.45
C      18.83      35.52      16.18
C      16.45      35.17      15.53
C      15.30      34.40      15.46
H      14.98      28.66      14.41
H      14.99      30.47      15.09
H      16.54      31.47      16.68
H      14.95      26.57      13.16
H      18.59      32.87      16.85
C      12.84      32.92      16.01
H      14.39      34.83      15.06
H      16.43      36.21      15.20
C      12.80      25.17      12.31
C      12.82      28.90      14.49
C      12.83      30.25      15.09
C      12.80      26.44      13.06
C      11.61      32.28      15.77
C      10.36      33.05      15.87
C       8.02      34.64      16.04
C      11.61      28.24      14.16
C      11.62      30.94      15.33
C       9.15      32.51      16.35
C      11.60      27.05      13.45
C       8.00      33.29      16.45
