48

O      11.74      22.49      13.82
C      15.33      26.57      22.09
C      15.50      26.83      23.46
O       5.84      28.80      22.74
O       6.85      28.99      24.76
C      14.05      26.07      21.55
C      16.66      27.43      23.94
H      10.96      26.56      24.16
C      14.03      25.34      20.35
C      17.55      27.49      21.68
C      16.38      26.90      21.21
H       8.90      27.65      25.00
H      10.68      25.07      19.90
H       7.33      27.78      21.00
C      18.85      28.56      23.53
C      17.69      27.79      23.05
C      14.05      23.98      17.75
H       9.41      26.76      20.15
C      14.06      23.42      16.48
H      10.68      24.18      18.20
O      19.82      28.80      22.73
O      18.82      29.01      24.74
H      10.71      23.20      15.95
O      14.00      22.49      13.83
H      12.83      27.06      23.03
H      14.71      26.57      24.16
H      16.77      27.65      24.99
H      14.98      25.07      19.91
H      18.34      27.77      20.99
H      16.25      26.76      20.14
H      15.00      24.18      18.23
H      15.00      23.21      15.98
C      10.34      26.57      22.09
C      10.17      26.83      23.47
C      12.85      23.15      15.81
C      11.61      26.07      21.54
C      12.86      22.67      14.42
C       9.01      27.43      23.94
C      11.63      25.34      20.35
C       8.12      27.49      21.69
C      12.84      24.29      18.41
C       9.28      26.91      21.22
C       6.82      28.55      23.55
C      12.83      26.42      22.15
C      12.83      24.97      19.72
C       7.98      27.79      23.06
C      11.64      23.98      17.73
C      11.64      23.42      16.46
