48

C       1.78      21.73       6.51
C       1.62      22.80       7.42
H       2.41      23.53       7.54
C       3.06      21.52       5.80
C       0.46      22.90       8.18
C       3.08      20.85       4.56
C      -0.44      20.92       7.10
H       0.85      19.96       5.69
C       0.73      20.81       6.35
C      -1.73      21.99       8.95
H       2.12      19.58       2.49
H       2.15      18.12       0.51
H      -1.23      20.18       7.00
C      -0.57      21.96       8.04
C       3.08      19.27       2.08
C       3.09      18.45       0.96
O       5.44      16.64      -1.16
O      11.27      21.15       8.74
O      10.26      22.78       9.95
H       4.28      22.31       7.39
O       3.18      16.63      -1.17
O      -2.71      21.18       8.76
O      -1.70      22.82       9.94
C       6.77      21.73       6.51
C       6.95      22.79       7.42
C       5.50      21.52       5.80
C       8.11      22.90       8.18
C       5.48      20.85       4.56
C       8.99      20.91       7.09
C       7.83      20.81       6.35
C      10.29      21.97       8.95
C       9.13      21.94       8.04
C       5.49      19.28       2.09
C       5.50      18.46       0.97
H       6.16      23.53       7.54
H       8.22      23.70       8.90
H       6.43      20.60       4.11
H       9.78      20.17       6.99
C       4.30      18.02       0.40
H       0.34      23.71       8.90
H       7.70      19.95       5.69
C       4.31      17.06      -0.71
C       4.28      19.70       2.69
C       4.28      21.86       6.40
H       2.12      20.60       4.10
C       4.28      20.50       3.93
H       6.44      19.59       2.50
H       6.44      18.13       0.53
