48

C      14.05      33.85      20.09
C      15.31      33.37      20.71
C      17.65      32.43      22.00
C      14.05      37.26      17.40
O       6.93      31.70      23.97
O      11.74      40.94      15.34
C      14.04      34.90      19.16
C      16.51      33.23      20.00
C      14.06      38.46      16.72
O       5.79      31.55      22.03
H      10.68      36.82      17.64
H      10.67      35.35      18.88
H       9.13      33.46      18.94
H      10.70      38.95      16.45
C      17.66      32.76      20.63
C      18.83      31.88      22.70
C      16.45      32.60      22.72
C      15.30      33.05      22.09
H       7.08      32.61      20.07
O      18.74      31.73      23.98
H      11.28      33.18      22.66
O      19.88      31.56      22.04
O      14.00      40.93      15.34
H       9.24      32.37      23.78
H      12.83      32.47      21.21
H      15.00      36.80      17.65
H      14.99      35.34      18.88
H      16.54      33.46      18.94
H      15.01      38.93      16.46
H      18.58      32.61      20.07
C      11.61      33.86      20.09
C      10.36      33.38      20.71
H      14.38      33.18      22.66
C      11.64      37.27      17.40
H      16.43      32.37      23.78
C       8.02      32.43      22.00
C      11.62      34.90      19.16
C       9.15      33.23      20.00
C      11.64      38.48      16.72
C      12.83      33.32      20.53
C      12.87      40.39      15.67
C      12.84      36.64      17.80
C       8.00      32.76      20.63
C      12.83      35.45      18.68
C      12.86      39.11      16.39
C      10.37      33.05      22.09
C       9.22      32.60      22.72
C       6.84      31.87      22.69
