48

C       4.30      23.21      11.19
H       2.13      20.92       9.94
H       2.12      19.43       8.71
H       0.58      17.55       8.64
C       3.06      17.95       7.49
C       1.80      17.47       6.86
H       2.15      23.05      11.13
C       3.09      21.36      10.18
H      -1.47      16.71       7.51
C      -0.53      16.53       5.58
C       3.07      18.99       8.42
C       0.60      17.33       7.58
H       2.73      17.28       4.91
C       3.09      22.57      10.86
H       0.68      16.47       3.79
C      -0.55      16.85       6.95
C      -1.71      15.97       4.89
C       0.66      16.70       4.86
O      10.18      15.83       3.59
C       1.81      17.15       5.49
O      11.33      15.65       5.53
O       5.44      25.02      12.24
H       4.28      16.57       6.37
O      -1.63      15.80       3.61
O      -2.76      15.64       5.56
O       3.19      25.03      12.24
C       5.50      17.95       7.49
C       6.75      17.47       6.86
C       9.09      16.53       5.57
C       5.49      21.35      10.18
H       7.87      16.47       3.79
C       5.49      18.99       8.42
C       7.96      17.33       7.57
C       5.51      22.56      10.86
C       9.11      16.85       6.94
C      10.27      15.98       4.87
C       7.89      16.70       4.85
C       6.74      17.15       5.49
H       6.45      20.89       9.93
C       4.28      17.42       7.05
H       7.98      17.55       8.64
H       6.45      23.03      11.12
C       4.31      24.49      11.91
C       4.29      20.73       9.78
H       6.44      19.43       8.71
H      10.03      16.71       7.51
C       4.28      19.54       8.90
H       5.83      17.28       4.91
