632

C       9.12       1.26      52.85
C      10.42       1.24      52.30
C      10.42      30.52      52.30
C       9.11      30.51      52.85
C       8.48      29.25      53.06
C       9.09      28.04      52.69
C      10.39      28.08      52.14
C      11.06      29.30      51.97
C      11.06       2.46      51.96
C      10.40       3.69      52.13
C       9.10       3.73      52.67
C       8.49       2.52      53.06
C       7.13      31.80      52.31
C       5.84       0.01      52.89
C       6.84       0.01      55.21
C       8.15      31.80      54.67
C       6.66       0.02      56.62
C       7.77       0.00      57.48
C       9.07      31.79      56.96
C       9.25      31.78      55.56
C       7.23      31.78      50.89
C       6.10      31.78      50.04
C       4.83       0.00      50.66
C       4.70       0.02      52.05
C       8.38      31.79      53.17
C       5.63       0.03      54.36
C      11.14      31.79      52.02
C       3.79       1.26       7.25
C       2.49       1.24       7.80
C       2.49      30.52       7.79
C       3.79      30.51       7.24
C       4.42      29.25       7.02
C       3.81      28.04       7.39
C       2.51      28.08       7.94
C       1.85      29.30       8.12
C       1.85       2.46       8.14
C       2.50       3.69       7.97
C       3.80       3.74       7.42
C       4.42       2.52       7.04
C       5.78      31.79       7.77
C       7.07       0.00       7.18
C       6.04       0.01       4.86
C       4.74      31.80       5.42
C       6.21       0.02       3.46
C       5.10       0.02       2.60
C       3.79       0.01       3.13
C       3.63      31.80       4.53
C       5.70      31.77       9.19
C       6.84      31.76      10.02
C       8.11      31.79       9.39
C       8.22       0.01       8.00
C       4.53      31.79       6.92
C       7.26       0.02       5.71
C       1.76      31.79       8.08
C       3.80      14.60      52.81
C       2.49      14.62      52.27
C       2.49      17.15      52.28
C       3.80      17.16      52.82
C       4.44      18.42      53.02
C       3.83      19.63      52.63
C       2.52      19.59      52.10
C       1.85      18.37      51.95
C       1.85      13.41      51.93
C       2.51      12.18      52.08
C       3.82      12.13      52.62
C       4.43      13.34      53.01
C       5.79      15.88      52.29
C       7.08      15.85      52.89
C       6.05      15.85      55.20
C       4.75      15.87      54.64
C       6.21      15.83      56.61
C       5.10      15.85      57.46
C       3.80      15.88      56.93
C       3.63      15.89      55.53
C       5.70      15.90      50.87
C       6.85      15.90      50.04
C       8.12      15.87      50.67
C       8.23      15.84      52.07
C       4.54      15.88      53.14
C       7.27      15.83      54.36
C       1.76      15.89      52.01
C       9.10      14.60       7.22
C      10.42      14.62       7.76
C      10.42      17.15       7.75
C       9.10      17.17       7.21
C       8.47      18.42       7.01
C       9.08      19.63       7.40
C      10.38      19.59       7.93
C      11.05      18.37       8.08
C      11.05      13.41       8.10
C      10.39      12.18       7.96
C       9.08      12.13       7.42
C       8.47      13.34       7.03
C       7.12      15.88       7.75
C       5.83      15.86       7.17
C       6.83      15.86       4.85
C       8.14      15.87       5.40
C       6.66      15.85       3.45
C       7.76      15.85       2.58
C       9.07      15.86       3.10
C       9.25      15.87       4.50
C       7.22      15.89       9.17
C       6.09      15.90      10.02
C       4.82      15.87       9.41
C       4.69      15.86       8.01
C       8.37      15.88       6.89
C       5.62      15.85       5.71
C      11.14      15.89       8.02
C       9.31       1.26      22.74
C      10.61       1.25      22.18
C      10.61      30.53      22.17
C       9.31      30.51      22.73
C       8.68      29.25      22.94
C       9.29      28.04      22.56
C      10.59      28.08      22.00
C      11.24      29.31      21.83
C      11.24       2.46      21.85
C      10.59       3.69      22.03
C       9.29       3.73      22.59
C       8.68       2.52      22.96
C       7.31      31.79      22.23
C       6.03      31.77      22.84
C       7.08      31.77      25.14
C       8.37      31.78      24.57
C       6.92      31.76      26.55
C       8.04      31.76      27.39
C       9.34      31.77      26.85
C       9.50      31.78      25.45
C       7.38      31.80      20.81
C       6.23      31.81      19.99
C       4.97      31.78      20.63
C       4.87      31.76      22.03
C       8.57      31.79      23.07
C       5.85      31.76      24.31
C      11.33      31.79      21.89
C       4.00       1.26      37.28
C       2.69       1.24      37.82
C       2.68      30.52      37.83
C       3.99      30.51      37.28
C       4.62      29.25      37.08
C       4.00      28.03      37.45
C       2.70      28.08      38.00
C       2.04      29.31      38.16
C       2.05       2.46      38.15
C       2.71       3.69      37.98
C       4.01       3.73      37.44
C       4.63       2.51      37.07
C       5.98      31.78      37.83
C       7.27      31.76      37.26
C       6.28      31.76      34.93
C       4.97      31.78      35.47
C       6.46      31.75      33.53
C       5.36      31.76      32.65
C       4.05      31.79      33.17
C       3.87      31.80      34.57
C       5.87      31.80      39.25
C       7.00      31.80      40.10
C       8.28      31.76      39.49
C       8.41      31.74      38.09
C       4.73      31.79      36.96
C       7.49      31.74      35.79
C       1.96      31.79      38.10
C       4.00      14.61      22.79
C       2.69      14.62      22.25
C       2.69      17.15      22.24
C       4.00      17.17      22.78
C       4.64      18.43      22.96
C       4.02      19.64      22.57
C       2.72      19.59      22.04
C       2.05      18.36      21.90
C       2.05      13.40      21.93
C       2.72      12.18      22.07
C       4.03      12.14      22.60
C       4.64      13.35      22.98
C       5.99      15.89      22.23
C       7.28      15.91      22.81
C       6.29      15.91      25.13
C       4.97      15.90      24.59
C       6.47      15.91      26.54
C       5.37      15.91      27.41
C       4.06      15.90      26.89
C       3.87      15.90      25.49
C       5.88      15.88      20.81
C       7.01      15.87      19.96
C       8.29      15.90      20.57
C       8.42      15.91      21.97
C       4.74      15.89      23.10
C       7.49      15.92      24.27
C       1.96      15.88      21.99
C       9.29      14.60      37.32
C      10.60      14.62      37.87
C      10.60      17.15      37.88
C       9.30      17.17      37.33
C       8.67      18.43      37.13
C       9.28      19.64      37.53
C      10.58      19.59      38.07
C      11.24      18.36      38.22
C      11.24      13.40      38.21
C      10.57      12.18      38.05
C       9.27      12.13      37.51
C       8.66      13.35      37.12
C       7.30      15.89      37.83
C       6.02      15.91      37.22
C       7.07      15.91      34.92
C       8.37      15.89      35.49
C       6.92      15.92      33.51
C       8.04      15.90      32.67
C       9.34      15.88      33.21
C       9.49      15.87      34.62
C       7.37      15.87      39.25
C       6.22      15.87      40.07
C       4.96      15.90      39.43
C       4.86      15.92      38.03
C       8.56      15.89      36.99
C       5.84      15.93      35.75
C      11.33      15.88      38.15
C      10.18      31.76      57.84
C      10.75      30.55      58.26
C      11.83      30.54      59.17
C      12.35      31.76      59.66
C      10.73       1.15      58.34
C       0.51       0.02       0.45
C       1.05       1.24       0.91
C       2.13       1.24       1.82
C       2.68       0.02       2.27
C       2.11      30.63       1.79
C       2.68      15.90      57.80
C       2.12      17.12      58.22
C       1.04      17.13      59.13
C       0.51      15.91      59.62
C       2.13      14.71      58.30
C      12.35      15.85       0.40
C      11.82      14.62       0.88
C      10.74      14.63       1.78
C      10.18      15.85       2.23
C      10.74      17.04       1.74
C      10.47      31.75      27.70
C      11.02      30.53      28.15
C      12.10      30.53      29.05
C      12.63      31.76      29.52
C      11.03       1.14      28.19
C       0.79       0.01      30.45
C       1.31       1.23      30.95
C       2.38       1.22      31.87
C       2.95       0.00      32.29
C       2.41      30.62      31.78
C       2.95      15.92      27.77
C       2.39      17.14      28.21
C       1.32      17.14      29.12
C       0.79      15.92      29.61
C       2.40      14.72      28.27
C      12.63      15.85      30.54
C      12.11      14.63      31.02
C      11.03      14.64      31.93
C      10.46      15.86      32.36
C      11.01      17.05      31.86
C       4.54      10.91      52.65
C       4.72      10.15      51.47
C       5.49       8.97      51.49
C       6.07       8.52      52.70
C       5.15      10.43      53.83
C       6.85       7.34      52.77
C       7.03       6.60      53.96
C       7.78       5.41      53.94
C       8.39       4.96      52.74
C       8.19       5.74      51.58
C       8.35      10.91       7.40
C       8.17      10.16       8.58
C       7.40       8.98       8.57
C       6.83       8.53       7.36
C       7.74      10.43       6.22
C       6.05       7.34       7.30
C       5.86       6.60       6.11
C       5.11       5.41       6.14
C       4.51       4.96       7.34
C       4.71       5.75       8.50
C       8.35      20.85       7.37
C       8.17      21.61       8.56
C       7.40      22.78       8.55
C       6.82      23.24       7.34
C       7.74      21.33       6.19
C       6.05      24.43       7.28
C       5.86      25.17       6.08
C       5.12      26.37       6.12
C       4.52      26.81       7.32
C       4.71      26.02       8.47
C       4.55      20.85      52.67
C       4.73      21.61      51.49
C       5.49      22.79      51.51
C       6.07      23.24      52.72
C       5.16      21.33      53.85
C       6.85      24.43      52.79
C       7.03      25.17      53.98
C       7.77      26.36      53.95
C       8.38      26.81      52.76
C       8.18      26.03      51.60
C       4.76      10.92      22.62
C       4.94      10.17      21.44
C       5.70       8.99      21.45
C       6.28       8.53      22.65
C       5.37      10.44      23.80
C       7.05       7.34      22.71
C       7.24       6.60      23.90
C       7.98       5.40      23.87
C       8.58       4.96      22.67
C       8.38       5.75      21.51
C       8.55      10.91      37.47
C       8.37      10.15      38.65
C       7.60       8.97      38.63
C       7.03       8.52      37.42
C       7.94      10.44      36.29
C       6.26       7.34      37.35
C       6.07       6.60      36.15
C       5.33       5.40      36.18
C       4.73       4.95      37.37
C       4.92       5.73      38.53
C       8.55      20.86      37.49
C       8.37      21.62      38.67
C       7.60      22.80      38.65
C       7.03      23.24      37.43
C       7.95      21.33      36.30
C       6.25      24.43      37.36
C       6.07      25.16      36.17
C       5.32      26.36      36.19
C       4.72      26.81      37.39
C       4.91      26.03      38.55
C       4.75      20.86      22.60
C       4.93      21.61      21.41
C       5.70      22.78      21.42
C       6.27      23.24      22.63
C       5.36      21.34      23.78
C       7.05      24.43      22.69
C       7.24      25.17      23.88
C       7.99      26.36      23.84
C       8.58      26.81      22.64
C       8.39      26.02      21.48
C       6.22      31.76      48.62
C       5.39      30.94      47.82
C       5.51      30.94      46.41
C       6.47      31.76      45.78
C       7.18       0.74      47.94
C       6.63       0.01      44.36
C       7.59       0.83      43.73
C       7.71       0.83      42.33
C       6.87       0.01      41.52
C       5.92      31.03      42.20
C       6.74      31.72      11.45
C       7.59      30.90      12.23
C       7.51      30.90      13.64
C       6.58      31.74      14.29
C       5.81       0.72      12.15
C       6.46      31.80      15.72
C       5.53       0.83      16.37
C       5.46       0.84      17.78
C       6.32       0.02      18.56
C       7.24      31.03      17.86
C       6.75      15.94      48.61
C       7.60      16.76      47.83
C       7.52      16.76      46.43
C       6.58      15.93      45.77
C       5.81      15.14      47.91
C       6.46      15.87      44.35
C       5.52      15.04      43.69
C       5.45      15.03      42.28
C       6.31      15.85      41.50
C       7.24      16.65      42.20
C       6.22      15.92      11.44
C       5.39      16.74      12.25
C       5.50      16.74      13.65
C       6.46      15.91      14.28
C       7.17      15.12      12.12
C       6.63      15.86      15.70
C       7.59      15.03      16.33
C       7.71      15.03      17.73
C       6.88      15.85      18.54
C       5.93      16.65      17.86
H       3.97       0.03      50.09
H       3.76       0.05      52.46
H       5.72       0.04      57.02
H       7.61       0.01      58.49
H      10.21      31.76      55.19
H       8.16      31.74      50.46
H       7.52      29.23      53.43
H      10.87      27.22      51.86
H      11.99      29.30      51.57
H       7.53       2.55      53.42
H      12.00       2.46      51.55
H      10.87       4.55      51.84
H       5.06       0.93      54.60
H       5.02      30.97      54.62
H      12.06      31.79      52.61
H      11.42      31.78      50.96
H       8.97       0.00       9.95
H       9.15       0.03       7.58
H       7.15       0.04       3.04
H       5.25       0.04       1.59
H       2.68      31.79       4.92
H       4.77      31.73       9.63
H       5.37      29.23       6.65
H       2.03      27.22       8.22
H       0.91      29.30       8.53
H       5.37       2.55       6.67
H       0.91       2.46       8.55
H       2.03       4.55       8.26
H       7.84       0.92       5.45
H       7.86      30.96       5.44
H       0.84      31.79       7.49
H       1.49      31.78       9.14
H       8.97      15.84      50.11
H       9.16      15.81      52.49
H       7.15      15.81      57.02
H       5.25      15.84      58.48
H       2.68      15.91      55.15
H       4.78      15.94      50.44
H       5.40      18.44      53.38
H       2.05      20.45      51.81
H       0.91      18.37      51.55
H       5.39      13.31      53.37
H       0.91      13.41      51.53
H       2.04      11.32      51.79
H       7.84      14.93      54.61
H       7.88      16.70      54.63
H       0.85      15.88      52.61
H       1.47      15.89      50.96
H       3.96      15.85       9.97
H       3.75      15.84       7.60
H       5.72      15.84       3.04
H       7.60      15.84       1.57
H      10.20      15.88       4.88
H       8.15      15.93       9.60
H       7.51      18.44       6.66
H      10.85      20.45       8.22
H      11.99      18.37       8.48
H       7.51      13.32       6.67
H      11.99      13.41       8.50
H      10.86      11.32       8.26
H       5.04      14.96       5.46
H       5.02      16.73       5.44
H      12.06      15.88       7.41
H      11.43      15.89       9.07
H       4.10      31.75      20.08
H       3.94      31.74      22.46
H       5.99      31.74      26.97
H       7.90      31.75      28.41
H      10.44      31.78      25.05
H       8.30       0.03      20.36
H       7.73      29.22      23.32
H      11.06      27.22      21.71
H      12.18      29.31      21.41
H       7.73       2.54      23.34
H      12.18       2.47      21.43
H      11.06       4.55      21.74
H       5.25       0.82      24.58
H       5.28      30.86      24.57
H      12.25      31.79      22.47
H      11.59      31.80      20.83
H       9.13      31.73      40.06
H       9.35      31.72      37.69
H       7.41      31.73      33.13
H       5.53      31.76      31.64
H       2.91       0.01      34.94
H       4.94       0.03      39.67
H       5.58      29.22      36.71
H       2.22      27.22      38.28
H       1.10      29.31      38.57
H       5.59       2.54      36.71
H       1.11       2.46      38.55
H       2.23       4.55      38.26
H       8.10       0.80      35.53
H       8.06      30.84      35.55
H       1.04      31.79      37.51
H       1.68      31.79      39.16
H       9.14      15.92      20.00
H       9.36      15.93      22.37
H       7.41      15.92      26.94
H       5.53      15.92      28.42
H       2.92      15.89      25.12
H       4.95      15.84      20.39
H       5.60      18.46      23.31
H       2.24      20.45      21.75
H       1.11      18.36      21.51
H       5.60      13.33      23.33
H       1.11      13.40      21.53
H       2.25      11.32      21.78
H       8.09      15.04      24.53
H       8.07      16.81      24.52
H       1.05      15.89      22.59
H       1.67      15.88      20.93
H       4.09      15.93      39.98
H       3.93      15.95      37.61
H       5.99      15.94      33.09
H       7.90      15.91      31.65
H      10.44      15.86      35.01
H       8.29      15.84      39.70
H       7.71      18.45      36.76
H      11.05      20.45      38.37
H      12.18      18.36      38.63
H       7.71      13.32      36.76
H      12.18      13.40      38.62
H      11.04      11.32      38.35
H       5.24      15.06      35.48
H       5.28      16.83      35.49
H      12.25      15.88      37.55
H      11.61      15.88      39.21
H       2.48      29.72       2.08
H       0.67       2.14       0.60
H       2.52       2.13       2.13
H      10.35       2.06      58.08
H      10.38      29.65      57.92
H      12.22      29.64      59.46
H      10.37      17.96       2.02
H      12.19      13.73       0.57
H      10.35      13.74       2.11
H       2.51      13.80      58.03
H       2.49      18.01      57.89
H       0.65      18.03      59.43
H       2.79      29.71      32.05
H       0.92       2.13      30.66
H       2.75       2.12      32.21
H      10.66       2.05      27.90
H      10.63      29.64      27.83
H      12.47      29.63      29.37
H      10.64      17.97      32.13
H      12.49      13.73      30.72
H      10.64      13.75      32.26
H       2.77      13.81      27.99
H       2.77      18.03      27.88
H       0.94      18.04      29.43
H       8.57       5.45      50.68
H       6.60       6.90      54.84
H       7.89       4.87      54.81
H       5.05      10.94      54.72
H       4.33      10.46      50.58
H       5.60       8.44      50.62
H       4.33       5.47       9.41
H       6.29       6.90       5.23
H       5.01       4.87       5.28
H       7.84      10.93       5.33
H       8.57      10.48       9.47
H       7.29       8.46       9.44
H       4.33      26.31       9.38
H       6.30      24.87       5.21
H       5.02      26.91       5.25
H       7.83      20.83       5.31
H       8.57      21.29       9.44
H       7.29      23.31       9.42
H       8.57      26.32      50.69
H       6.59      24.87      54.86
H       7.88      26.90      54.82
H       5.07      20.82      54.73
H       4.33      21.30      50.60
H       5.61      23.32      50.64
H       8.76       5.46      20.60
H       6.81       6.90      24.78
H       8.09       4.86      24.73
H       5.27      10.94      24.69
H       4.54      10.49      20.55
H       5.81       8.47      20.57
H       4.53       5.45      39.44
H       6.51       6.90      35.28
H       5.23       4.87      35.31
H       8.04      10.95      35.41
H       8.76      10.47      39.54
H       7.49       8.44      39.50
H       4.52      26.32      39.45
H       6.50      24.86      35.29
H       5.22      26.89      35.32
H       8.05      20.83      35.42
H       8.76      21.30      39.56
H       7.49      23.32      39.52
H       8.76      26.31      20.58
H       6.81      24.87      24.76
H       8.10      26.90      24.71
H       5.26      20.84      24.66
H       4.53      21.28      20.53
H       5.81      23.30      20.55
H       5.30      30.40      41.69
H       8.21       1.44      44.27
H       8.40       1.45      41.90
H       7.80       1.37      48.45
H       4.70      30.32      48.25
H       4.89      30.33      45.87
H       7.88      30.40      18.35
H       4.89       1.43      15.85
H       4.78       1.46      18.23
H       5.18       1.35      11.65
H       8.26      30.28      11.78
H       8.14      30.30      14.16
H       7.87      17.28      41.71
H       4.89      14.44      44.22
H       4.77      14.41      41.84
H       5.18      14.51      48.41
H       8.28      17.38      48.28
H       8.15      17.37      45.90
H       5.31      17.28      18.38
H       8.21      14.42      15.78
H       8.40      14.41      18.16
H       7.79      14.49      11.61
H       4.69      17.36      11.82
H       4.89      17.34      14.20
N      11.76       1.10      59.22
N       1.08      30.68       0.91
N       1.09      14.76      59.17
N      11.78      17.00       0.86
N      12.07       1.09      29.06
N       1.38      30.67      30.90
N       1.37      14.77      29.15
N      12.05      17.00      30.99
N       5.87       9.28      53.82
N       7.44       6.86      51.64
N       7.03       9.28       6.24
N       5.46       6.87       8.44
N       7.02      22.49       6.22
N       5.46      24.90       8.41
N       5.87      22.49      53.83
N       7.43      24.91      51.65
N       6.08       9.28      23.78
N       7.64       6.87      21.58
N       7.23       9.28      36.30
N       5.67       6.86      38.48
N       7.23      22.49      36.32
N       5.66      24.90      38.50
N       6.07      22.50      23.75
N       7.64      24.90      21.55
N       7.25       0.72      46.59
N       5.84      31.05      43.56
N       5.77       0.70      13.51
N       7.27      31.04      16.50
N       5.77      15.16      46.56
N       7.27      16.63      43.56
N       7.25      15.14      13.47
N       5.85      16.63      16.51
