16

V       0.63      11.75       9.25
V       4.11      12.06       9.19
C       2.59       9.92       7.70
C       2.57      10.57      11.36
C      -0.90      13.93      10.69
O       1.41      10.30       8.11
O       0.24      12.86       7.63
O       1.39      10.79      10.83
O       0.22      13.35      10.37
C      -0.87      13.21       7.07
O       2.54      12.75       9.07
O       3.68      10.95      10.81
O       3.71      10.46       8.07
O      -0.93      11.06       9.37
O      -2.07      13.51      10.33
O      -2.05      13.02       7.61
