13

C      -1.01       0.43       8.72
C      -1.00      -0.63       7.80
C      -0.97      -1.94       8.29
C      -1.08      -0.39       6.31
O      -1.13      -1.43       5.58
O      -1.10       0.82       5.92
Br      -1.00       1.51      11.40
H      -0.89      -1.48      11.55
H      -1.05       1.45       8.36
H      -0.98      -2.79       7.61
N      -0.92      -2.22       9.61
C      -0.91      -1.21      10.50
C      -0.96       0.12      10.08
