13

O       6.31       7.28       7.51
O       6.28       5.02       7.17
C       6.09       7.06       2.59
C       6.14       5.73       3.01
H       6.07       7.32       1.54
C       6.19       6.48       5.29
C       6.15       7.79       4.80
H       6.16       8.64       5.48
C       6.19       5.42       4.37
H       6.23       4.39       4.73
C       6.26       6.24       6.78
Br       6.18       4.33       1.69
N       6.10       8.07       3.48
