13

O       9.43       1.87       1.51
O       7.42       0.84       1.75
C       6.76       1.41      -0.87
H       7.16       1.52      -4.13
H      10.15       1.76      -0.99
H       5.94       1.29      -0.17
Br      10.14       1.71      -4.04
C       7.45       1.54      -3.08
C       8.78       1.65      -2.69
C       9.11       1.67      -1.33
C       8.07       1.53      -0.40
N       6.46       1.44      -2.18
C       8.32       1.41       1.08
