264

C      13.95       6.85      37.25
C      15.10       7.36      37.92
C      16.08       6.52      38.50
C      15.88       5.10      38.44
C      14.69       4.54      37.85
C      13.71       5.44      37.28
C      13.05       7.79      36.64
C      12.24       8.71      37.39
C      11.29       9.55      36.71
C      11.34       9.63      35.28
C      12.04       8.62      34.53
C      12.85       7.71      35.24
C      11.84       8.47      33.13
C      10.22      10.17      37.45
C      14.39       3.13      37.87
C      17.30       7.13      38.96
C      -2.33      14.97      17.31
C      -3.48      14.46      17.98
C      -4.47      15.29      18.56
C      -4.27      16.72      18.51
C      -3.07      17.28      17.92
C      -2.09      16.38      17.35
C      -1.43      14.04      16.70
C      -0.62      13.12      17.44
C       0.34      12.28      16.76
C       0.29      12.22      15.32
C      -0.41      13.23      14.58
C      -1.23      14.13      15.30
C      -0.21      13.39      13.19
C       1.40      11.66      17.50
C      -2.79      18.69      17.93
C      -5.68      14.68      19.02
C       1.47      15.26       1.82
C       2.62      14.74       1.16
C       3.56      15.57       0.52
C       3.38      16.99       0.58
C       2.12      17.53       1.00
C       1.20      16.66       1.70
C       0.55      14.34       2.41
C      -0.47      13.67       1.67
C      -1.43      12.83       2.34
C      -1.42      12.77       3.78
C      -0.44      13.51       4.53
C       0.53      14.26       3.82
C      -0.25      13.40       5.92
C      -2.27      11.98       1.53
C       1.68      18.84       0.60
C       4.60      14.80      39.61
C      10.14       6.75      21.75
C       9.00       7.27      21.10
C       8.05       6.45      20.46
C       8.23       5.02      20.53
C       9.49       4.48      20.95
C      10.41       5.35      21.64
C      11.07       7.66      22.35
C      12.09       8.34      21.61
C      13.06       9.17      22.29
C      13.05       9.22      23.73
C      12.08       8.47      24.47
C      11.10       7.74      23.76
C      11.89       8.57      25.87
C      13.90      10.02      21.48
C       9.92       3.17      20.54
C       7.02       7.03      19.66
C      12.73       8.05      28.09
C      13.79       7.42      28.79
C      13.81       7.45      30.22
C      12.76       8.11      30.92
C      14.87       6.82      30.91
C      15.90       6.16      30.21
C      15.88       6.13      28.81
C      14.84       6.75      28.11
C      -1.09      13.88       8.15
C      -2.16      14.50       8.86
C      -2.18      14.45      10.29
C      -1.13      13.78      10.98
C      -3.25      15.06      10.99
C      -4.27      15.72      10.30
C      -4.26      15.78       8.90
C      -3.21      15.17       8.18
C      14.70       0.82      38.90
C      13.56      -0.00      38.62
C       1.04      21.49      38.92
C       2.20      20.96      39.56
C      -0.03      20.66      38.50
C      -1.18      21.20      37.92
C      -1.30      22.59      37.76
C      12.35       0.52      38.11
C       8.14      11.58      37.54
C       7.33      12.47      36.80
C       6.23      13.14      37.44
C       5.99      12.89      38.83
C       5.36      13.92      36.64
C       5.61      14.14      35.28
C       6.73      13.55      34.67
C       7.57      12.71      35.42
C      18.65       9.08      39.72
C      20.00       8.78      39.38
C      -4.08       9.66       0.17
C      -4.39      10.70       1.10
C      -2.76       9.03      39.83
C      -2.46       8.07      38.85
C      -3.49       7.54      38.06
C      20.33       7.89      38.33
C      -3.09      21.00      18.95
C      -1.96      21.83      18.67
C      10.56       0.33      18.97
C       9.40       0.86      19.61
C      11.63       1.16      18.55
C      12.78       0.62      17.97
C       0.33      22.14      17.82
C      -0.74      21.30      18.17
C       3.48      10.25      17.59
C       4.30       9.36      16.84
C       5.39       8.69      17.49
C       5.63       8.93      18.88
C       6.26       7.90      16.69
C       6.01       7.69      15.33
C       4.90       8.28      14.72
C       4.06       9.12      15.47
C      -7.03      12.73      19.79
C      16.78      13.03      19.45
C      15.71      12.34      20.12
C      16.02      11.30      21.05
C      14.38      12.79      19.90
C      14.08      13.75      18.92
C      15.11      14.28      18.13
C      16.44      13.93      18.40
H      15.27       8.37      37.89
H      13.37       7.00      34.71
H      11.76       5.63      36.62
H      12.12       4.13      37.11
H      12.04       9.49      39.28
H      12.95       8.14      39.24
H      10.66      11.52      35.09
H      10.92      10.80      33.65
H      16.95       3.36      38.62
H      17.54       4.55      39.54
H      10.92       8.57      32.79
H      13.75       2.79      37.16
H      18.10       6.53      39.10
H      10.12       9.95      38.44
H      -3.64      13.45      17.95
H      -1.75      14.85      14.77
H      -0.14      16.21      16.69
H      -0.51      17.70      17.18
H      -0.42      12.32      19.32
H      -1.33      13.67      19.30
H       0.97      10.32      15.12
H       0.71      11.05      13.69
H      -5.34      18.46      18.69
H      -5.93      17.26      19.61
H       0.71      13.28      12.85
H      -2.15      19.03      17.22
H      -6.48      15.28      19.16
H       1.51      11.88      18.49
H       2.75      13.72       1.14
H       1.24      14.77       4.35
H      -0.55      16.60       2.79
H      -0.04      18.12       2.47
H      -1.36      13.52      39.70
H       0.05      14.32      39.75
H      -2.85      11.31       4.04
H      -2.23      11.85       5.44
H       4.44      18.73       0.62
H       5.34      17.46       0.20
H       0.57      12.94       6.23
H       0.69      19.05       0.66
H       5.07      15.41      38.95
H      -1.93      11.77       0.60
H       8.87       8.29      21.08
H      10.38       7.22      24.29
H      12.17       5.40      22.73
H      11.64       3.89      22.42
H      12.97       8.31      19.75
H      11.56       7.51      19.80
H      14.49      10.67      24.00
H      13.87      10.11      25.40
H       7.17       3.29      20.59
H       6.27       4.56      20.15
H      11.07       9.04      26.19
H      10.92       2.96      20.61
H       6.55       6.41      19.00
H      13.55      10.24      20.55
H      14.91       6.82      31.94
H      16.66       5.71      30.73
H      16.62       5.65      28.30
H      14.85       6.70      27.08
H      -3.29      15.05      12.01
H      -5.04      16.17      10.82
H      -5.00      16.26       8.40
H      -3.23      15.23       7.16
H       0.03      19.64      38.56
H      -1.95      20.58      37.63
H      10.42       0.08      37.38
H      12.20       1.52      38.02
H       4.49      14.30      37.02
H       4.97      14.70      34.72
H       6.90      13.69      33.67
H       8.34      12.25      34.93
H      -1.98       9.55       0.52
H      -1.49       7.78      38.68
H      -3.28       6.88      37.31
H      19.62       7.51      37.72
H      11.57       2.18      18.61
H      13.55       1.24      17.68
H       1.19      21.74      17.44
H      -0.59      20.30      18.08
H       7.13       7.52      17.07
H       6.65       7.12      14.77
H       4.73       8.14      13.72
H       3.29       9.58      14.98
H      13.60      12.47      20.48
H      13.12      14.04      18.76
H      14.89      14.94      17.39
H      17.16      14.31      17.78
N      16.84       4.26      38.95
N      10.81      10.69      34.61
N      12.46       5.01      36.90
N      12.38       8.76      38.75
N      -5.23      17.55      19.01
N       0.82      11.15      14.65
N      -0.84      16.82      16.97
N      -0.76      13.06      18.80
N       4.44      17.81       0.32
N      -2.26      11.93       4.48
N       0.08      17.17       2.31
N      -0.57      13.93       0.32
N       7.16       4.20      20.27
N      13.89      10.05      24.43
N      11.53       4.84      22.25
N      12.18       8.09      20.26
N      11.79       8.69      30.16
N      11.77       8.66      28.85
N      12.70       8.07      26.74
N      12.78       8.23      32.27
N      -0.15      13.22      10.21
N      -0.14      13.27       8.90
N      -1.07      13.88       6.80
N      -1.14      13.65      12.33
N       3.21      21.83      39.78
N      15.75       0.20      39.48
N      14.92       2.14      38.64
N       2.42      19.91       0.20
N       6.79      11.97      39.43
N       7.79      11.37      38.84
N       9.23      10.97      36.98
N       5.11      13.54      39.67
N      -5.72      10.93       1.32
N      18.47      10.27       0.74
N      17.50       8.42      39.37
N      -3.55      11.57       1.75
N       8.39      -0.01      19.84
N      -4.15      21.62      19.54
N      -3.32      19.68      18.70
N       9.18       2.10      20.14
N       4.83       9.85      19.48
N       3.83      10.46      18.89
N       2.39      10.86      17.02
N       6.51       8.29      19.72
N      17.34      11.07      21.27
N      18.31      11.73      20.69
N      -5.88      13.40      19.43
N      15.18      10.43      21.70
