176

Zn      15.73       7.23      12.35
Zn      14.12      10.02      12.35
Zn      17.34      10.02      12.35
Zn       7.87       6.40       4.12
Zn       9.48       3.61       4.12
Zn       6.26       3.61       4.12
H       7.37       6.15       7.73
H       8.40       6.57       9.93
H       7.00       7.38      11.85
H       4.58       7.73      11.57
H       9.51       4.17       7.73
H       9.35       3.07       9.93
H      10.75       3.88      11.85
H      12.27       5.80      11.57
H       6.72       3.31       7.73
H       5.84       3.99       9.93
H       5.85       2.37      11.85
H       6.75       0.11      11.57
H       8.37       6.15       0.50
H       7.33       6.57      14.77
H       8.74       7.38      12.85
H      11.15       7.73      13.13
H       6.22       4.17       0.50
H       6.38       3.07      14.77
H       4.98       3.88      12.85
H       3.47       5.80      13.13
H       9.01       3.31       0.50
H       9.89       3.99      14.77
H       9.88       2.37      12.85
H       8.98       0.11      13.13
H      16.23       7.48       8.73
H      15.20       7.06       6.54
H      16.60       6.26       4.62
H      19.01       5.90       4.90
H      14.09       9.46       8.73
H      14.24      10.56       6.54
H      12.85       9.75       4.62
H      11.33       7.84       4.90
H      16.87      10.33       8.73
H      17.75       9.64       6.54
H      17.75      11.26       4.62
H      16.85      13.53       4.90
H      15.23       7.48      15.96
H      16.26       7.06       1.70
H      14.86       6.26       3.61
H      12.45       5.90       3.33
H      17.37       9.46      15.96
H      17.22      10.56       1.70
H      18.62       9.75       3.61
H      20.13       7.84       3.33
H      14.59      10.33      15.96
H      13.71       9.64       1.70
H      13.72      11.26       3.61
H      14.61      13.53       3.33
C      18.05       7.75      10.48
C      18.88       7.26       9.32
C       4.54       7.09       9.49
C       5.35       6.64       8.38
C       6.75       6.47       8.57
C       7.33       6.72       9.80
C       6.54       7.16      10.88
C       5.18       7.36      10.73
C      13.41       7.74      10.48
C      12.58       7.28       9.32
C      11.73       6.15       9.49
C      10.94       5.68       8.38
C      10.09       4.55       8.57
C      10.01       3.93       9.80
C      10.80       4.39      10.88
C      11.65       5.47      10.73
C      15.72      11.77      10.48
C      15.74      12.73       9.32
C       7.32       0.39       9.49
C       7.31       1.31       8.38
C       6.76       2.61       8.57
C       6.26       2.99       9.80
C       6.26       2.08      10.88
C       6.77       0.81      10.73
C      13.41       7.75      14.21
C      12.58       7.26      15.37
C      11.19       7.09      15.21
C      10.39       6.64      16.31
C       8.99       6.47      16.13
C       8.40       6.72      14.90
C       9.20       7.16      13.81
C      10.55       7.36      13.96
C      18.05       7.74      14.21
C      18.89       7.28      15.37
C       4.00       6.15      15.21
C       4.79       5.68      16.31
C       5.64       4.55      16.13
C       5.72       3.93      14.90
C       4.93       4.39      13.81
C       4.09       5.47      13.96
C      15.74      11.77      14.21
C      15.72      12.73      15.37
C       8.41       0.39      15.21
C       8.42       1.31      16.31
C       8.97       2.61      16.13
C       9.48       2.99      14.90
C       9.47       2.08      13.81
C       8.96       0.81      13.96
C       5.54       5.88       5.98
C       4.72       6.37       7.14
C      19.05       6.54       6.97
C      18.25       6.99       8.08
C      16.85       7.17       7.89
C      16.27       6.92       6.66
C      17.06       6.47       5.58
C      18.42       6.27       5.73
C      10.18       5.89       5.98
C      11.02       6.36       7.14
C      11.86       7.48       6.97
C      12.66       7.95       8.08
C      13.51       9.08       7.89
C      13.58       9.71       6.66
C      12.80       9.25       5.58
C      11.95       8.17       5.73
C       7.87       1.86       5.98
C       7.86       0.90       7.14
C      16.27      13.24       6.97
C      16.28      12.32       8.08
C      16.83      11.02       7.89
C      17.34      10.64       6.66
C      17.33      11.55       5.58
C      16.82      12.83       5.73
C      10.19       5.88       2.25
C      11.01       6.37       1.09
C      12.41       6.54       1.26
C      13.21       6.99       0.15
C      14.61       7.17       0.34
C      15.19       6.92       1.57
C      14.40       6.47       2.65
C      13.04       6.27       2.50
C       5.55       5.89       2.25
C       4.71       6.36       1.09
C      19.60       7.48       1.26
C      18.80       7.95       0.15
C      17.95       9.08       0.34
C      17.88       9.71       1.57
C      18.66       9.25       2.65
C      19.51       8.17       2.50
C       7.86       1.86       2.25
C       7.87       0.90       1.09
C      15.19      13.24       1.26
C      15.18      12.32       0.15
C      14.63      11.02       0.34
C      14.12      10.64       1.57
C      14.13      11.55       2.65
C      14.64      12.83       2.50
O      17.39       6.87      11.11
O      18.14       9.01      10.68
O      12.98       8.76      11.11
O      14.46       7.04      10.68
O      16.82      11.64      11.11
O      14.60      11.22      10.68
O      14.07       6.87      13.58
O      13.32       9.01      14.02
O      18.48       8.76      13.58
O      17.00       7.04      14.02
O      14.64      11.64      13.58
O      16.87      11.22      14.02
O       6.20       6.76       5.35
O       5.46       4.62       5.79
O      10.62       4.88       5.35
O       9.14       6.59       5.79
O       6.78       1.99       5.35
O       9.00       2.42       5.79
O       9.53       6.76       2.88
O      10.27       4.62       2.44
O       5.11       4.88       2.88
O       6.59       6.59       2.44
O       8.95       1.99       2.88
O       6.73       2.42       2.44
O      15.73       9.09      12.35
O       7.87       4.54       4.12
