16

O       5.20       4.76      10.34
O       7.54       4.24       8.92
O       7.18       6.75       7.23
C       7.31       5.54       9.40
H       7.87       7.61       9.00
H       7.78       5.71      10.40
C       5.79       7.06       7.38
H       5.23       5.00       7.68
C       5.80       5.84       9.58
H       5.68       6.78      10.13
C       7.88       6.64       8.49
H       8.92       6.40       8.23
C       5.14       5.95       8.22
H       5.39       7.04       6.36
O       5.52       8.36       7.89
O       3.71       6.18       8.37
