16

C       6.11       4.53       4.86
C       6.76       3.70       5.96
C       6.09       2.34       6.08
C       4.59       2.51       6.37
C       4.02       3.42       5.28
O       6.37       4.02       3.55
O       8.19       3.55       5.73
O       6.69       1.57       7.15
O       4.36       2.99       7.67
H       6.51       5.55       4.87
O       4.72       4.68       5.16
H       6.66       4.23       6.91
H       6.21       1.78       5.13
H       4.03       2.91       4.30
H       2.98       3.69       5.51
H       4.12       1.52       6.21
