16

H       3.55       1.09      11.50
H       3.69      -0.96      10.19
H       3.27       0.81       7.73
H       1.16      -0.23       7.46
H       1.07       1.67       8.85
H       0.02       0.46       9.64
C       3.15       1.10      10.48
C       3.79      -0.01       9.66
C       3.14      -0.13       8.29
C       1.62      -0.40       8.46
C       1.06       0.70       9.36
O       3.42       2.40       9.96
O       5.23       0.21       9.53
O       3.73      -1.22       7.55
O       1.38      -1.70       8.92
O       1.76       0.82      10.62
