16

C       0.21       7.39       7.07
C       0.83       8.22       5.95
C       0.16       9.57       5.84
C      -1.35       9.38       5.55
C      -1.90       8.48       6.66
H       0.62       6.37       7.05
O       0.51       7.90       8.37
H       0.73       7.68       5.01
O       2.27       8.37       6.17
O      -1.18       7.23       6.81
H       0.27      10.13       6.78
O       0.74      10.34       4.76
H      -1.83      10.37       5.71
O      -1.58       8.91       4.25
H      -1.88       9.02       7.63
H      -2.93       8.19       6.44
