1020

H      10.81      12.42       6.78
H      11.71      13.99       5.22
H      13.86      13.41       9.54
H      14.76      14.98       7.97
H      15.83      14.99       5.54
H      16.61      16.61       3.97
H      11.93      16.60       5.24
H      12.72      18.21       3.66
H      13.94      16.25       1.44
H      13.91      16.30      77.15
H      15.82      19.66       0.22
H      16.95      21.69       0.25
H      15.72      19.52       5.33
H      16.91      21.77       5.36
H      19.97      22.98       3.79
H      20.77      24.49       5.46
H      16.14      24.75       4.04
H      16.95      26.27       5.71
H      18.85      25.06       1.56
H      18.98      25.02      77.28
H      15.85      19.59      73.36
H      17.15      21.77      73.39
H      16.66      25.05      75.07
H      17.62      26.56      73.48
H      20.04      22.54      74.72
H      21.00      24.05      73.13
H      20.46      25.02      70.70
H      21.42      26.64      69.21
H      20.69      29.68      72.06
H      19.75      28.07      73.54
H      16.28      16.32      75.00
H      15.45      14.90      73.26
H      12.86      16.75      70.42
H      12.25      15.35      68.59
H      12.82      11.94      71.02
H      13.43      13.34      72.85
H      12.08      17.41      72.82
H      12.91      18.83      74.56
H      17.90      26.04       8.16
H      18.92      27.21       9.97
H      21.18      27.02       5.69
H      22.21      28.17       7.49
H      11.84      13.11      67.69
H      11.46      11.01       9.05
H      21.13      27.79      10.92
H      22.14      30.04      69.97
H      31.41      29.86      32.85
H      32.32      28.30      31.29
H      30.76      26.74      35.62
H      31.67      25.17      34.06
H      31.13      24.23      31.63
H      32.15      22.74      30.05
H      34.47      26.81      31.32
H      35.48      25.32      29.74
H      33.17      25.24      27.52
H      33.22      25.24      24.99
H      35.18      21.90      26.30
H      36.38      19.91      26.33
H      35.11      22.06      31.41
H      36.47      19.91      31.44
H      35.99      16.65      29.88
H      36.89      15.20      31.54
H      39.43      19.09      30.12
H      40.35      17.62      31.79
H      38.34      16.58      27.64
H      38.25      16.49      25.12
H      35.11      21.91      21.19
H      36.35      19.69      21.23
H      39.43      18.48      22.91
H      40.26      16.90      21.32
H      35.56      16.81      22.56
H      36.39      15.22      20.96
H      37.52      15.21      18.54
H      38.45      13.58      17.04
H      41.43      12.67      19.91
H      40.50      14.29      21.39
H      32.06      23.18      22.83
H      31.25      24.61      21.09
H      34.14      25.93      18.26
H      33.24      27.16      16.43
H      30.00      28.37      18.86
H      30.90      27.14      20.68
H      35.11      26.27      20.66
H      35.92      24.84      22.40
H      39.67      16.91      34.24
H      40.17      15.45      36.05
H      38.88      13.58      31.77
H      39.36      12.12      33.58
H      31.50      28.63      15.52
H      29.86      30.00      35.15
H      39.57      13.24      37.00
H      41.03      11.24      17.81
H      36.23       3.30      58.93
H      34.42       3.30      57.37
H      33.84       5.43      61.70
H      32.03       5.42      60.14
H      31.49       6.36      57.71
H      29.69       6.23      56.13
H      32.05       2.18      57.40
H      30.25       2.05      55.82
H      31.35       4.09      53.60
H      31.32       4.04      51.07
H      27.45       4.02      52.38
H      25.12       3.98      52.41
H      27.62       3.99      57.49
H      25.08       3.90      57.52
H      22.50       5.95      55.96
H      20.78       5.89      57.62
H      22.88       1.75      56.20
H      21.16       1.68      57.87
H      21.25       3.95      53.72
H      21.22       4.07      51.20
H      27.49       4.07      47.28
H      24.95       4.11      47.31
H      22.36       2.05      48.99
H      20.57       2.12      47.40
H      22.85       6.23      48.64
H      21.06       6.31      47.05
H      20.48       5.34      44.62
H      18.60       5.35      43.13
H      16.33       3.23      46.00
H      18.20       3.22      47.48
H      30.11       6.08      48.91
H      31.76       6.07      47.17
H      31.45       2.91      44.34
H      32.97       3.07      42.51
H      35.64       5.27      44.94
H      34.12       5.10      46.77
H      31.27       1.89      46.74
H      29.62       1.91      48.48
H      20.88       2.62      60.32
H      19.37       2.93      62.13
H      18.39       4.97      57.85
H      16.89       5.29      59.66
H      35.11       3.84      41.60
H      37.11       4.57      61.23
H      17.76       4.55      63.08
H      15.29       4.29      43.89
H      13.55       7.32      67.31
H      12.96       9.01      68.90
H      15.98       8.69      64.83
H      17.15       7.21      63.36
H      13.67       4.85      62.96
H      12.75      11.87      65.83
H      12.49       6.34      64.45
H      13.16      11.21      63.58
H      13.54       9.66      63.16
H      25.64      30.05      15.15
H      27.39      29.72      16.74
H      25.60      27.25      12.67
H      23.73      26.98      11.20
H      23.43      31.17      10.79
H      29.97      28.46      13.66
H      25.31      31.45      12.28
H      29.20      28.44      11.42
H      27.66      28.88      10.99
H      39.27       8.21      41.23
H      38.11       6.86      42.82
H      36.87       9.64      38.75
H      37.57      11.39      37.28
H      41.35       9.56      36.87
H      35.73       5.25      39.75
H      40.65       7.79      38.36
H      36.10       5.93      37.50
H      37.25       7.04      37.08
H       1.76       1.36      67.32
H      21.02      32.00      68.92
H      54.96      32.23      65.07
H      35.09       1.38      63.62
H      38.56       3.71      62.99
H      20.75      28.99      65.99
H       2.51       2.26      64.45
H      20.24      29.60      63.74
H      19.93      31.16      63.29
H       7.72      10.94      15.14
H      43.27      11.23      16.75
H      45.13      14.02      12.89
H       9.72      14.36      11.45
H      10.02      10.19      10.84
H      40.80      12.97      13.83
H       8.13       9.84      12.29
H      41.57      13.12      11.58
H      43.08      12.60      11.12
H      13.03       1.00      41.23
H      14.15       2.35      42.84
H      34.27      31.63      38.99
H      33.64      29.84      37.54
H      29.89      31.68      36.91
H      16.90       3.61      39.92
H      11.88       1.19      38.36
H      16.64       2.87      37.66
H      15.43       1.83      37.20
H      30.09       2.03       3.78
H      30.99       3.60       2.22
H      33.14       3.01       6.54
H      34.04       4.59       4.97
H      35.11       4.60       2.54
H      35.90       6.22       0.97
H      31.21       6.20       2.24
H      32.00       7.82       0.66
H      33.22       5.85      76.68
H      33.20       5.90      74.15
H      35.11       9.26      75.46
H      36.24      11.30      75.49
H      35.00       9.13       2.33
H      36.19      11.38       2.36
H      39.25      12.59       0.79
H      40.06      14.10       2.46
H      35.42      14.36       1.04
H      36.23      15.88       2.71
H      38.14      14.67      76.81
H      38.26      14.63      74.28
H      35.13       9.20      70.36
H      36.44      11.38      70.39
H      35.95      14.66      72.07
H      36.90      16.17      70.48
H      39.33      12.15      71.72
H      40.29      13.66      70.13
H      39.75      14.63      67.70
H      40.70      16.25      66.21
H      39.98      19.29      69.06
H      39.03      17.68      70.54
H      35.57       5.93      72.00
H      34.73       4.51      70.26
H      32.14       6.36      67.42
H      31.53       4.96      65.59
H      32.10       1.54      68.02
H      32.71       2.94      69.85
H      31.36       7.02      69.82
H      32.20       8.44      71.56
H      37.18      15.65       5.16
H      38.20      16.81       6.97
H      40.46      16.63       2.69
H      41.49      17.78       4.49
H      31.12       2.71      64.69
H      30.74       0.62       6.05
H      40.41      17.39       7.92
H      41.43      19.65      66.97
H      13.41      19.47      29.85
H      14.32      17.91      28.29
H      12.76      16.35      32.62
H      13.67      14.78      31.06
H      13.13      13.84      28.63
H      14.15      12.35      27.05
H      16.47      16.42      28.32
H      17.48      14.92      26.74
H      15.17      14.85      24.52
H      15.22      14.85      21.99
H      17.18      11.51      23.30
H      18.38       9.52      23.33
H      17.11      11.67      28.41
H      18.47       9.52      28.44
H      17.99       6.26      26.88
H      18.89       4.81      28.54
H      21.43       8.69      27.12
H      22.35       7.23      28.79
H      20.34       6.18      24.64
H      20.25       6.10      22.12
H      17.11      11.52      18.19
H      18.35       9.30      18.23
H      21.43       8.09      19.91
H      22.26       6.50      18.32
H      17.56       6.42      19.56
H      18.39       4.83      17.96
H      19.52       4.82      15.54
H      20.45       3.19      14.04
H      23.43       2.28      16.91
H      22.50       3.90      18.39
H      14.06      12.79      19.83
H      13.25      14.22      18.09
H      16.14      15.53      15.26
H      15.24      16.77      13.43
H      12.00      17.98      15.86
H      12.90      16.75      17.68
H      17.11      15.88      17.66
H      17.92      14.44      19.40
H      21.67       6.52      31.24
H      22.17       5.06      33.05
H      20.88       3.19      28.77
H      21.36       1.73      30.58
H      13.50      18.24      12.52
H      11.86      19.60      32.15
H      21.56       2.85      34.00
H      23.03       0.85      14.81
H      36.87      25.20      55.93
H      35.06      25.19      54.37
H      34.49      27.32      58.70
H      32.67      27.32      57.14
H      32.13      28.26      54.71
H      30.33      28.13      53.13
H      32.70      24.08      54.40
H      30.90      23.95      52.82
H      31.99      25.99      50.60
H      31.96      25.94      48.07
H      28.09      25.92      49.38
H      25.76      25.88      49.41
H      28.26      25.89      54.49
H      25.72      25.80      54.52
H      23.14      27.84      52.96
H      21.43      27.78      54.62
H      23.53      23.64      53.20
H      21.80      23.58      54.87
H      21.90      25.84      50.72
H      21.87      25.97      48.20
H      28.13      25.97      44.28
H      25.59      26.01      44.31
H      23.00      23.95      45.99
H      21.21      24.02      44.40
H      23.49      28.13      45.64
H      21.70      28.21      44.05
H      21.12      27.23      41.62
H      19.25      27.24      40.13
H      16.97      25.13      43.00
H      18.84      25.12      44.48
H      30.76      27.98      45.91
H      32.40      27.97      44.17
H      32.09      24.80      41.34
H      33.61      24.97      39.51
H      36.28      27.17      41.94
H      34.76      27.00      43.77
H      31.91      23.79      43.74
H      30.26      23.81      45.48
H      21.52      24.52      57.32
H      20.01      24.82      59.13
H      19.03      26.87      54.85
H      17.53      27.19      56.66
H      35.76      25.74      38.60
H      37.76      26.47      58.23
H      18.40      26.45      60.08
H      15.93      26.19      40.89
H      51.47      29.22      64.31
H      50.88      30.90      65.90
H      53.91      30.59      61.83
H      17.79      29.10      60.36
H      51.60      26.74      59.96
H      32.04       1.48      62.83
H      50.42      28.23      61.45
H      32.44       0.82      60.58
H      51.46      31.55      60.16
H      44.92      19.65      12.15
H      46.67      19.32      13.74
H      44.89      16.86       9.67
H      43.02      16.59       8.20
H      42.72      20.78       7.79
H      11.97      18.07      10.66
H      44.60      21.06       9.28
H      11.20      18.05       8.42
H      46.94      18.49       7.99
H      39.91      30.11      38.23
H      38.75      28.76      39.82
H      37.51      31.54      35.75
H      19.57       1.00      34.28
H      41.99      31.46      33.87
H      36.37      27.15      36.75
H      41.29      29.69      35.36
H      36.74      27.83      34.50
H      37.89      28.94      34.08
H      39.69      23.25      64.32
H      40.30      21.60      65.92
H      36.96      21.83      62.07
H      35.73      23.28      60.62
H      39.20      25.61      59.99
H      40.03      18.60      62.99
H      40.44      24.15      61.45
H      39.52      19.21      60.74
H      39.22      20.77      60.29
H      27.00       0.54      12.14
H      25.27       0.84      13.75
H      27.13       3.62       9.89
H      29.00       3.97       8.45
H      47.94      32.08       7.84
H      22.80       2.58      10.83
H      46.06      31.74       9.29
H      23.57       2.72       8.58
H      25.08       2.20       8.12
H      13.67      22.90      38.23
H      14.79      24.25      39.84
H      16.27      21.24      35.99
H      15.64      19.45      34.54
H      49.17      21.29      33.91
H      17.54      25.51      36.92
H      49.81      23.09      35.36
H      17.28      24.77      34.66
H      16.07      23.73      34.20
C      14.35      16.99       0.87
C      14.33      17.02      77.74
C      14.98      18.18      77.31
C      14.99      18.15       1.33
C      15.20      18.48       2.69
C      15.82      19.67       3.16
C      16.86      21.65       3.19
C      16.64      21.26       4.51
C      16.00      20.04       4.49
C      17.51      22.84       2.76
C      17.77      23.18       1.40
C      17.87      23.15      77.39
C      18.53      24.30      77.84
C      18.45      24.32       0.98
C      17.72      22.79      76.02
C      17.04      21.63      75.56
C      15.88      19.72      75.53
C      16.13      20.09      74.21
C      16.84      21.27      74.22
C      15.18      18.56      75.96
C      14.67      17.70      74.94
C      13.45      18.00      74.30
C      12.96      17.17      73.27
C      13.67      16.01      72.88
C      14.89      15.71      73.53
C      15.39      16.55      74.55
C      13.20      15.18      71.82
C      13.17      13.78      71.96
C      12.80      12.95      70.88
C      12.46      13.50      69.62
C      12.46      14.91      69.49
C      12.82      15.74      70.57
C      18.27      23.66      75.04
C      17.57      24.83      74.65
C      18.14      25.71      73.73
C      19.41      25.45      73.15
C      20.08      24.26      73.51
C      19.52      23.38      74.45
C      20.01      26.39      72.27
C      20.10      27.75      72.63
C      20.67      28.70      71.77
C      21.17      28.31      70.50
C      21.09      26.95      70.13
C      20.53      26.00      71.01
C      17.98      23.73       3.76
C      19.32      23.67       4.19
C      19.80      24.57       5.16
C      18.94      25.55       5.73
C      17.59      25.58       5.32
C      17.12      24.69       4.34
C      19.43      26.42       6.74
C      18.77      26.55       7.99
C      19.38      27.23       9.06
C      20.65      27.83       8.92
C      21.27      27.78       7.64
C      20.67      27.09       6.57
C      14.74      17.56       3.68
C      15.63      16.62       4.24
C      13.38      17.54       4.06
C      12.92      16.59       4.98
C      13.80      15.63       5.54
C      15.17      15.67       5.17
C      13.32      14.64       6.44
C      13.95      14.42       7.69
C      13.42      13.50       8.61
C      12.27      12.74       8.29
C      11.67      12.93       7.03
C      12.18      13.87       6.12
C      12.25      12.70      68.50
C      21.59      29.29      69.63
C      21.37      28.21      10.05
C      11.63      11.97       9.23
C      33.61      24.51      26.95
C      33.64      24.52      25.57
C      34.32      23.37      25.15
C      34.28      23.38      27.41
C      34.47      23.03      28.77
C      35.19      21.90      29.24
C      36.38      20.01      29.27
C      36.16      20.39      30.59
C      35.42      21.56      30.57
C      37.09      18.85      28.84
C      37.25      18.46      27.48
C      37.18      18.38      25.23
C      37.85      17.24      25.68
C      37.90      17.29      27.06
C      36.94      18.70      23.86
C      36.28      19.87      23.40
C      35.20      21.83      23.37
C      35.40      21.42      22.04
C      36.07      20.22      22.06
C      34.55      23.01      23.79
C      34.06      23.88      22.78
C      34.93      24.79      22.14
C      34.45      25.63      21.11
C      33.10      25.59      20.71
C      32.23      24.68      21.37
C      32.70      23.84      22.39
C      32.61      26.41      19.65
C      31.41      27.15      19.80
C      30.88      27.88      18.72
C      31.53      27.89      17.46
C      32.75      27.19      17.33
C      33.29      26.47      18.41
C      37.42      17.79      22.87
C      38.78      17.81      22.49
C      39.27      16.87      21.57
C      38.41      15.91      20.99
C      37.04      15.92      21.34
C      36.55      16.85      22.29
C      38.92      14.91      20.11
C      40.05      14.15      20.48
C      40.59      13.18      19.61
C      40.01      12.96      18.34
C      38.87      13.71      17.97
C      38.33      14.66      18.85
C      37.63      18.00      29.84
C      36.91      16.86      30.27
C      37.45      16.00      31.24
C      38.72      16.26      31.81
C      39.42      17.41      31.40
C      38.89      18.27      30.42
C      39.23      15.39      32.82
C      39.67      15.90      34.07
C      39.96      15.04      35.14
C      39.84      13.64      35.00
C      39.50      13.13      33.72
C      39.20      13.99      32.65
C      33.91      23.89      29.76
C      32.65      23.59      30.32
C      34.57      25.08      30.14
C      33.97      25.96      31.06
C      32.70      25.67      31.62
C      32.06      24.46      31.25
C      32.08      26.58      32.52
C      31.59      26.15      33.78
C      31.05      27.07      34.69
C      30.97      28.44      34.36
C      31.42      28.87      33.10
C      31.98      27.95      32.19
C      30.95      28.49      16.34
C      40.65      12.10      17.47
C      39.82      12.83      36.13
C      30.63      29.38      35.31
C      30.49       4.07      53.03
C      30.48       4.04      51.66
C      29.15       4.03      51.23
C      29.17       4.06      53.49
C      28.78       4.06      54.86
C      27.44       4.01      55.32
C      25.20       3.92      55.35
C      25.65       3.92      56.67
C      27.03       3.98      56.65
C      23.85       3.89      54.92
C      23.42       3.95      53.56
C      23.40       4.05      51.31
C      22.08       4.04      51.76
C      22.09       3.97      53.14
C      23.79       4.09      49.94
C      25.13       4.08      49.48
C      27.37       4.04      49.45
C      26.92       4.07      48.12
C      25.54       4.09      48.14
C      28.72       4.02      49.88
C      29.72       4.00      48.86
C      30.07       2.79      48.22
C      31.03       2.79      47.19
C      31.68       3.98      46.79
C      31.33       5.18      47.45
C      30.36       5.20      48.47
C      32.64       3.99      45.74
C      33.87       4.66      45.88
C      34.77       4.75      44.80
C      34.46       4.19      43.54
C      33.24       3.48      43.41
C      32.35       3.38      44.49
C      22.76       4.13      48.96
C      22.10       2.95      48.58
C      21.04       3.00      47.65
C      20.64       4.22      47.07
C      21.34       5.40      47.43
C      22.38       5.36      48.37
C      19.52       4.28      46.19
C      18.30       3.68      46.57
C      17.19       3.70      45.70
C      17.28       4.31      44.43
C      18.50       4.92      44.05
C      19.60       4.91      44.93
C      22.84       3.85      55.93
C      22.22       5.04      56.35
C      21.20       5.00      57.32
C      20.79       3.78      57.90
C      21.43       2.59      57.48
C      22.44       2.62      56.50
C      19.78       3.76      58.90
C      20.01       3.13      60.15
C      19.11       3.31      61.22
C      17.95       4.11      61.08
C      17.69       4.67      59.80
C      18.58       4.50      58.73
C      29.81       4.13      55.84
C      30.17       5.37      56.41
C      30.50       2.96      56.22
C      31.56       3.04      57.14
C      31.95       4.28      57.70
C      31.22       5.44      57.34
C      33.05       4.36      58.60
C      32.92       5.01      59.86
C      33.99       5.01      60.78
C      35.21       4.40      60.45
C      35.36       3.79      59.18
C      34.29       3.77      58.27
C      35.26       4.39      42.42
C      16.22       4.18      43.55
C      17.27       4.54      62.21
C      36.20       4.22      61.39
C      12.76      10.58      67.49
C      12.85      10.89      66.12
C      13.21       9.92      65.16
C      13.46       8.58      65.60
C      13.31       8.26      66.97
C      12.97       9.25      67.90
C      14.13       7.65      64.78
C      15.49       7.87      64.47
C      16.18       6.99      63.62
C      15.53       5.86      63.07
C      14.17       5.63      63.38
C      13.48       6.51      64.25
C      28.85      29.10      15.33
C      29.08      28.86      13.96
C      28.05      29.04      13.00
C      26.77      29.49      13.44
C      26.56      29.78      14.80
C      27.59      29.58      15.74
C      25.62      29.38      12.61
C      25.14      28.09      12.31
C      24.03      27.93      11.46
C      23.38      29.06      10.91
C      23.86      30.35      11.22
C      24.96      30.51      12.08
C      36.85       5.90      41.41
C      36.52       5.83      40.04
C      37.19       6.62      39.08
C      38.22       7.51      39.52
C      38.58       7.54      40.89
C      37.89       6.75      41.82
C      38.70       8.56      38.70
C      37.82       9.63      38.39
C      38.24      10.66      37.54
C      39.54      10.66      36.99
C      40.42       9.60      37.30
C      40.01       8.56      38.17
C      20.99      30.35      67.58
C      20.74      29.99      66.25
C      20.38      30.95      65.27
C       1.61       0.02      65.67
C       1.92       0.40      67.00
C      20.93      31.72      67.95
C       0.89       0.96      64.88
C      36.80       0.74      64.66
C      36.07       1.60      63.82
C      36.70       2.69      63.18
C      38.07       2.94      63.45
C       1.51       2.09      64.31
C      41.86      12.08      15.42
C      41.67      12.48      14.08
C      42.68      12.31      13.10
C      43.92      11.74      13.50
C       6.81      11.29      14.82
C      43.07      11.45      15.77
C       7.81      11.90      12.71
C       8.31      13.20      12.48
C       9.41      13.40      11.64
C      10.05      12.31      11.02
C       9.58      11.00      11.29
C       8.48      10.79      12.14
C      15.60       3.14      41.50
C      16.04       3.11      40.17
C      15.39       2.32      39.19
C      14.27       1.53      39.58
C      13.79       1.61      40.91
C      14.44       2.41      41.86
C      13.82       0.44      38.79
C      33.34      31.64      38.57
C      32.96      30.59      37.73
C      31.70      30.59      37.10
C      30.80      31.65      37.37
C      12.53       0.41      38.22
C      33.63       6.60      76.12
C      33.61       6.63      74.74
C      34.27       7.79      74.31
C      34.28       7.75      76.57
C      34.48       8.09      77.94
C      35.11       9.28       0.16
C      36.15      11.26       0.19
C      35.93      10.87       1.51
C      35.29       9.65       1.49
C      36.80      12.45      78.00
C      37.06      12.79      76.64
C      37.15      12.76      74.39
C      37.81      13.91      74.84
C      37.74      13.93      76.22
C      37.00      12.40      73.02
C      36.32      11.24      72.56
C      35.16       9.33      72.53
C      35.41       9.70      71.21
C      36.13      10.88      71.22
C      34.47       8.16      72.96
C      33.95       7.31      71.94
C      32.73       7.61      71.30
C      32.25       6.78      70.27
C      32.96       5.62      69.88
C      34.18       5.32      70.53
C      34.67       6.16      71.55
C      32.49       4.79      68.82
C      32.45       3.38      68.96
C      32.08       2.56      67.88
C      31.75       3.11      66.62
C      31.74       4.52      66.49
C      32.10       5.35      67.57
C      37.55      13.27      72.04
C      36.86      14.43      71.65
C      37.42      15.32      70.73
C      38.69      15.06      70.15
C      39.36      13.87      70.51
C      38.80      12.99      71.45
C      39.29      16.00      69.27
C      39.38      17.36      69.63
C      39.96      18.31      68.77
C      40.45      17.92      67.50
C      40.37      16.55      67.13
C      39.81      15.61      68.01
C      37.26      13.34       0.76
C      38.61      13.28       1.19
C      39.08      14.18       2.16
C      38.23      15.15       2.73
C      36.88      15.19       2.32
C      36.40      14.30       1.34
C      38.72      16.03       3.74
C      38.06      16.15       4.99
C      38.66      16.84       6.06
C      39.94      17.44       5.92
C      40.55      17.39       4.64
C      39.95      16.70       3.57
C      34.02       7.17       0.68
C      34.91       6.23       1.24
C      32.67       7.15       1.06
C      32.20       6.19       1.98
C      33.09       5.24       2.54
C      34.45       5.28       2.17
C      32.61       4.25       3.44
C      33.23       4.03       4.69
C      32.71       3.10       5.61
C      31.56       2.35       5.29
C      30.95       2.53       4.03
C      31.47       3.48       3.12
C      31.53       2.31      65.50
C      40.88      18.90      66.63
C      40.65      17.82       7.05
C      30.92       1.58       6.23
C      15.61      14.12      23.95
C      15.64      14.12      22.57
C      16.32      12.98      22.15
C      16.28      12.99      24.41
C      16.47      12.64      25.77
C      17.19      11.50      26.24
C      18.38       9.61      26.27
C      18.16      10.00      27.59
C      17.42      11.16      27.57
C      19.09       8.46      25.84
C      19.25       8.06      24.48
C      19.18       7.99      22.23
C      19.85       6.85      22.68
C      19.90       6.90      24.06
C      18.94       8.31      20.86
C      18.28       9.47      20.40
C      17.20      11.43      20.37
C      17.40      11.03      19.04
C      18.07       9.82      19.06
C      16.55      12.62      20.79
C      16.06      13.49      19.78
C      16.93      14.40      19.14
C      16.45      15.23      18.11
C      15.10      15.20      17.71
C      14.23      14.29      18.37
C      14.70      13.45      19.39
C      14.61      16.02      16.65
C      13.41      16.76      16.80
C      12.88      17.49      15.72
C      13.53      17.50      14.46
C      14.75      16.80      14.33
C      15.29      16.08      15.41
C      19.42       7.40      19.87
C      20.78       7.41      19.49
C      21.27       6.48      18.57
C      20.41       5.51      17.99
C      19.04       5.53      18.34
C      18.55       6.45      19.29
C      20.92       4.52      17.11
C      22.05       3.76      17.48
C      22.59       2.79      16.61
C      22.01       2.56      15.34
C      20.87       3.31      14.97
C      20.33       4.27      15.85
C      19.63       7.61      26.84
C      18.91       6.47      27.27
C      19.45       5.61      28.24
C      20.72       5.87      28.81
C      21.42       7.02      28.40
C      20.89       7.87      27.42
C      21.23       5.00      29.82
C      21.67       5.51      31.07
C      21.96       4.65      32.14
C      21.84       3.24      32.00
C      21.50       2.73      30.72
C      21.20       3.60      29.65
C      15.91      13.50      26.76
C      14.65      13.20      27.32
C      16.57      14.68      27.14
C      15.97      15.56      28.06
C      14.70      15.28      28.62
C      14.06      14.07      28.25
C      14.08      16.19      29.52
C      13.59      15.76      30.78
C      13.05      16.68      31.69
C      12.97      18.05      31.36
C      13.42      18.48      30.10
C      13.98      17.56      29.19
C      12.95      18.09      13.34
C      22.65       1.71      14.47
C      21.82       2.44      33.13
C      12.63      18.99      32.31
C      31.14      25.97      50.03
C      31.12      25.94      48.66
C      29.79      25.93      48.23
C      29.81      25.95      50.49
C      29.42      25.96      51.86
C      28.08      25.91      52.32
C      25.84      25.82      52.35
C      26.29      25.82      53.67
C      27.67      25.88      53.65
C      24.49      25.79      51.92
C      24.07      25.84      50.56
C      24.04      25.94      48.31
C      22.72      25.94      48.76
C      22.73      25.87      50.14
C      24.43      25.99      46.94
C      25.77      25.98      46.48
C      28.01      25.94      46.45
C      27.56      25.96      45.12
C      26.19      25.99      45.14
C      29.36      25.91      46.88
C      30.37      25.90      45.86
C      30.71      24.69      45.22
C      31.68      24.68      44.19
C      32.32      25.88      43.79
C      31.97      27.08      44.45
C      31.00      27.09      45.47
C      33.28      25.88      42.74
C      34.51      26.55      42.88
C      35.41      26.65      41.80
C      35.10      26.08      40.54
C      33.88      25.38      40.41
C      32.99      25.27      41.49
C      23.41      26.03      45.96
C      22.74      24.85      45.58
C      21.68      24.89      44.65
C      21.28      26.12      44.07
C      21.98      27.30      44.43
C      23.02      27.26      45.37
C      20.16      26.17      43.19
C      18.94      25.58      43.57
C      17.83      25.60      42.70
C      17.92      26.21      41.43
C      19.14      26.82      41.05
C      20.25      26.81      41.93
C      23.49      25.75      52.93
C      22.86      26.94      53.35
C      21.85      26.90      54.32
C      21.43      25.67      54.90
C      22.08      24.49      54.48
C      23.09      24.52      53.50
C      20.42      25.66      55.90
C      20.65      25.03      57.15
C      19.75      25.21      58.22
C      18.60      26.01      58.08
C      18.33      26.56      56.80
C      19.23      26.39      55.73
C      30.45      26.03      52.84
C      30.81      27.27      53.41
C      31.14      24.86      53.22
C      32.21      24.94      54.14
C      32.59      26.18      54.70
C      31.87      27.34      54.34
C      33.69      26.26      55.60
C      33.56      26.90      56.86
C      34.63      26.91      57.78
C      35.86      26.29      57.45
C      36.00      25.68      56.18
C      34.93      25.66      55.27
C      35.91      26.29      39.42
C      16.86      26.07      40.55
C      17.91      26.44      59.21
C      36.84      26.12      58.39
C      32.04       0.19      64.49
C      32.14       0.50      63.12
C      51.14      31.81      62.16
C      51.39      30.48      62.60
C      51.24      30.16      63.97
C      50.90      31.15      64.90
C      52.06      29.54      61.78
C      53.42      29.77      61.47
C      16.82      28.89      60.62
C      16.17      27.76      60.07
C      52.10      27.53      60.38
C      51.41      28.40      61.25
C      10.85      18.71      12.33
C      11.08      18.47      10.96
C      47.34      18.65      10.00
C      46.06      19.10      10.44
C      45.85      19.39      11.80
C      46.88      19.19      12.74
C      44.91      18.98       9.61
C      44.42      17.70       9.31
C      43.31      17.54       8.46
C      42.66      18.67       7.91
C      43.15      19.96       8.22
C      44.25      20.12       9.08
C      37.49      27.80      38.41
C      37.16      27.72      37.04
C      37.83      28.52      36.08
C      38.86      29.40      36.52
C      39.22      29.44      37.89
C      38.53      28.65      38.82
C      39.34      30.46      35.70
C      38.47      31.52      35.39
C      20.24       0.27      34.54
C      21.54       0.27      33.99
C      41.06      31.49      34.30
C      40.65      30.46      35.17
C      40.27      19.96      64.58
C      40.03      19.60      63.25
C      39.67      20.56      62.27
C      39.53      21.92      62.67
C      39.84      22.29      64.00
C      40.21      21.32      64.95
C      38.82      22.85      61.88
C      37.44      22.64      61.66
C      36.71      23.50      60.82
C      37.35      24.59      60.18
C      38.71      24.84      60.45
C      39.44      23.98      61.31
C      23.86       1.69      12.42
C      23.67       2.09      11.08
C      24.68       1.92      10.10
C      25.92       1.35      10.50
C      26.09       0.89      11.82
C      25.07       1.06      12.77
C      27.09       1.51       9.71
C      27.59       2.81       9.48
C      28.70       3.01       8.64
C      29.33       1.91       8.02
C      28.87       0.60       8.29
C      27.76       0.40       9.14
C      16.24      25.04      38.50
C      16.68      25.01      37.17
C      16.03      24.22      36.19
C      14.91      23.43      36.58
C      14.43      23.51      37.91
C      15.09      24.31      38.86
C      14.46      22.34      35.79
C      15.34      21.25      35.57
C      14.96      20.19      34.73
C      13.70      20.20      34.10
C      12.80      21.25      34.37
C      13.17      22.31      35.22
N      15.35      18.82       0.21
N      16.35      20.67       2.42
N      17.44      22.52       0.26
N      16.45      20.67      76.30
N      34.69      22.73      26.29
N      35.79      20.94      28.50
N      36.85      19.07      26.34
N      35.75      20.86      24.14
N      28.41       4.03      52.37
N      26.31       3.98      54.58
N      24.16       3.99      52.43
N      26.26       4.05      50.22
N      13.33      10.30      63.86
N      16.14       5.16      62.13
N      12.69      11.50      68.45
N      28.32      28.74      11.70
N      22.47      28.87       9.96
N      29.68      28.70      16.29
N      36.80       6.54      37.78
N      39.84      11.54      36.05
N      36.08       5.38      42.37
N      20.13      30.53      64.00
N      35.98       3.31      62.27
N      20.99      29.39      68.50
N      42.44      12.74      11.83
N      10.96      12.62      10.11
N      41.03      12.57      16.33
N      15.88       2.31      37.92
N      31.52      29.65      36.18
N      16.43       3.62      42.42
N      34.64       8.43      75.45
N      35.64      10.27      77.66
N      36.73      12.13      75.51
N      35.73      10.28      73.30
N      16.69      12.34      23.29
N      17.79      10.55      25.50
N      18.85       8.68      23.34
N      17.74      10.47      21.14
N      29.05      25.93      49.37
N      26.95      25.87      51.58
N      24.81      25.89      49.43
N      26.90      25.95      47.22
N      51.26      32.19      60.86
N      16.79      27.06      59.13
N      31.98       1.11      65.45
N      47.60      18.35       8.70
N      41.75      18.48       6.96
N      11.68      18.31      13.29
N      37.44      28.44      34.78
N      21.84       1.15      33.05
N      36.72      27.28      39.37
N      39.42      20.14      61.00
N      36.62      25.21      59.27
N      40.28      19.00      65.50
N      24.44       2.35       8.83
N      30.24       2.23       7.11
N      23.03       2.17      13.33
N      16.52      24.21      34.92
N      13.52      19.26      33.18
N      17.07      25.52      39.42
