9

N       2.41       3.66       7.49
C       2.85       2.94       8.54
O       2.82       1.30      10.87
C       1.71       2.51       9.23
C       1.67       1.64      10.42
O       0.53       1.31      10.87
H       3.90       2.78       8.76
N       0.61       2.99       8.59
N       1.06       3.68       7.56
