9

N       0.99       3.61       4.76
C       0.53       2.87       3.73
O       0.55       1.17       1.42
C       1.66       2.40       3.06
O       2.83       1.17       1.42
C       1.69       1.51       1.88
H      -0.52       2.71       3.54
N       2.78       2.89       3.67
N       2.34       3.60       4.69
