9

C       3.90       6.37       8.48
O       3.91       8.07      10.79
C       5.03       6.84       9.16
O       6.19       8.07      10.80
C       5.05       7.73      10.34
H       2.84       6.53       8.67
N       6.14       6.35       8.54
N       5.71       5.64       7.53
N       4.35       5.63       7.46
