20

H       4.41       6.12       1.69
H       4.25       7.68       1.69
H       4.75       4.49       0.21
H       4.46       4.62      -1.33
H       2.44       4.64       0.65
H       2.16       4.80      -0.88
H       3.10       1.34      -2.43
H       2.31       2.67      -2.19
C       3.76       6.84       1.61
C       4.11       4.27      -0.49
C       2.80       4.98      -0.18
C       3.20       2.28      -2.24
C       2.79       6.74       2.76
C       3.95       2.93      -3.38
S       3.06       6.77      -0.04
S       4.00       2.47      -0.63
O       3.30       6.64       3.92
O       1.56       6.74       2.60
O       5.18       2.79      -3.48
O       3.29       3.62      -4.21
