837

H      11.74      19.13       2.87
H      10.15      18.30       1.34
H      13.48      15.29       3.14
H      11.90      14.46       1.58
H       9.61      13.26       1.35
H       8.03      12.44       2.90
H       6.29      16.28       3.14
H       7.86      17.10       1.58
H       7.36      16.35      41.67
H       6.74      17.97      40.05
H      10.79      19.13      39.69
H      11.39      17.56      41.33
H      12.40      15.19      41.67
H       8.37      13.99      41.35
H       8.97      12.41      39.70
H      13.01      13.58      40.05
H      -5.63      12.50      17.07
H      -5.56      14.29      15.53
H      25.15      12.91      17.33
H      25.22      14.69      15.77
H      -9.65      17.26      15.52
H      -9.58      19.06      17.06
H      -5.38      18.65      17.32
H      -5.46      16.87      15.76
H      -5.85      17.67      13.31
H      -4.15      17.39      11.68
H      -5.15      13.30      11.34
H      -6.81      13.57      12.99
H      25.61      13.87      13.32
H      -8.40      17.97      12.97
H     -10.07      18.23      11.33
H      23.90      14.14      11.70
H      14.79       0.57      31.25
H      -1.18      29.89      29.71
H      17.25       3.99      31.50
H      18.75       3.04      29.94
H      20.94       1.66      29.71
H      22.45       0.70      31.25
H       2.51      27.56      31.51
H       1.00      28.52      29.95
H       1.90      28.45      27.50
H       0.82      27.10      25.88
H      -2.23      30.01      25.52
H      16.32       1.04      27.16
H      17.86       3.10      27.49
H      20.92       0.22      27.16
H      21.99       1.53      25.52
H      18.95       4.44      25.87
H      11.31       8.10      39.09
H      11.65       9.28      34.42
H      10.95      10.94      35.99
H      13.12       6.41      31.79
H      14.37       3.99      35.01
H      13.18       5.40      36.51
H      14.98       4.83      31.60
H      10.18      10.36      39.36
H      19.99      18.36      10.73
H      20.85      17.47       6.07
H      22.63      17.23       7.64
H      17.63      17.65       3.43
H      14.90      17.79       6.64
H      16.72      18.11       8.14
H      15.34      16.84       3.24
H      22.52      18.19      11.00
H      24.54       5.72      24.92
H      23.36       5.43      20.24
H      22.26       3.99      21.81
H      25.12       8.13      17.61
H      26.60      10.42      20.83
H      25.96       8.68      22.33
H      25.56      10.53      17.43
H      23.14       3.61      25.18
H       8.44      23.44      39.09
H       8.10      22.27      34.42
H       8.80      20.60      35.99
H       6.64      25.15      31.79
H       5.39      27.57      35.01
H       6.58      26.15      36.51
H       4.77      26.72      31.60
H       9.57      21.18      39.35
H      -0.25      13.18      10.73
H      -1.09      14.06       6.06
H      -2.88      14.29       7.63
H       2.13      13.90       3.43
H       4.85      13.78       6.65
H       3.03      13.45       8.15
H       4.43      14.73       3.25
H      -2.77      13.33      10.99
H      -4.79      25.83      24.92
H      -3.59      26.12      20.25
H      -2.49      27.55      21.82
H      -5.36      23.43      17.61
H      -6.84      21.14      20.82
H      -6.21      22.87      22.32
H      -5.80      21.03      17.41
H      -3.38      27.93      25.19
H      11.74      19.13      35.42
H      10.15      18.30      33.88
H      13.48      15.29      35.68
H      11.90      14.46      34.12
H       9.61      13.26      33.89
H       8.03      12.44      35.44
H       6.29      16.28      35.68
H       7.86      17.10      34.12
H       7.36      16.35      31.67
H       6.74      17.97      30.05
H      10.79      19.13      29.69
H      11.39      17.56      31.33
H      12.40      15.19      31.67
H       8.37      13.99      31.35
H       8.97      12.41      29.70
H      13.01      13.58      30.05
H      -5.63      12.50       7.07
H      -5.56      14.29       5.53
H      25.15      12.91       7.33
H      25.22      14.69       5.77
H      -9.65      17.26       5.52
H      -9.58      19.06       7.06
H      -5.38      18.65       7.32
H      -5.46      16.87       5.76
H      -5.85      17.67       3.31
H      -4.15      17.39       1.68
H      -5.15      13.30       1.34
H      -6.81      13.57       2.99
H      25.61      13.87       3.32
H      -8.40      17.97       2.97
H     -10.07      18.23       1.33
H      23.90      14.14       1.70
H      14.79       0.57      21.25
H      -1.18      29.89      19.71
H      17.25       3.99      21.50
H      18.75       3.04      19.94
H      20.94       1.66      19.71
H      22.45       0.70      21.25
H       2.51      27.56      21.51
H       1.00      28.52      19.95
H       1.90      28.45      17.50
H       0.82      27.10      15.88
H      -2.23      30.01      15.52
H      16.32       1.04      17.16
H      17.86       3.10      17.49
H      20.92       0.22      17.16
H      21.99       1.53      15.52
H      18.95       4.44      15.87
H      11.31       8.10      29.09
H      11.65       9.28      24.42
H      10.95      10.94      25.99
H      13.12       6.41      21.79
H      14.37       3.99      25.01
H      13.18       5.40      26.51
H      14.98       4.83      21.60
H      10.18      10.36      29.36
H      19.99      18.36       0.73
H      20.85      17.47      38.61
H      22.63      17.23      40.18
H      17.63      17.65      35.97
H      14.90      17.79      39.18
H      16.72      18.11      40.68
H      15.34      16.84      35.78
H      22.52      18.19       1.00
H      24.54       5.72      14.92
H      23.36       5.43      10.24
H      22.26       3.99      11.81
H      25.12       8.13       7.61
H      26.60      10.42      10.83
H      25.96       8.68      12.33
H      25.56      10.53       7.43
H      23.14       3.61      15.18
H       8.44      23.44      29.09
H       8.10      22.27      24.42
H       8.80      20.60      25.99
H       6.64      25.15      21.79
H       5.39      27.57      25.01
H       6.58      26.15      26.51
H       4.77      26.72      21.60
H       9.57      21.18      29.35
H      -0.25      13.18       0.73
H      -1.09      14.06      38.60
H      -2.88      14.29      40.17
H       2.13      13.90      35.97
H       4.85      13.78      39.20
H       3.03      13.45      40.69
H       4.43      14.73      35.79
H      -2.77      13.33       0.99
H      -4.79      25.83      14.92
H      -3.59      26.12      10.25
H      -2.49      27.55      11.82
H      -5.36      23.43       7.61
H      -6.84      21.14      10.82
H      -6.21      22.87      12.32
H      -5.80      21.03       7.41
H      -3.38      27.93      15.19
H      11.74      19.13      25.42
H      10.15      18.30      23.88
H      13.48      15.29      25.68
H      11.90      14.46      24.12
H       9.61      13.26      23.89
H       8.03      12.44      25.44
H       6.29      16.28      25.68
H       7.86      17.10      24.12
H       7.36      16.35      21.67
H       6.74      17.97      20.05
H      10.79      19.13      19.69
H      11.39      17.56      21.33
H      12.40      15.19      21.67
H       8.37      13.99      21.35
H       8.97      12.41      19.70
H      13.01      13.58      20.05
H      -5.63      12.50      39.62
H      -5.56      14.29      38.07
H      25.15      12.91      39.87
H      25.22      14.69      38.31
H      -9.65      17.26      38.06
H      -9.58      19.06      39.60
H      -5.38      18.65      39.86
H      -5.46      16.87      38.30
H      -5.85      17.67      35.85
H      -4.15      17.39      34.22
H      -5.15      13.30      33.88
H      -6.81      13.57      35.53
H      25.61      13.87      35.86
H      -8.40      17.97      35.51
H     -10.07      18.23      33.87
H      23.90      14.14      34.24
H      14.79       0.57      11.25
H      -1.18      29.89       9.71
H      17.25       3.99      11.50
H      18.75       3.04       9.94
H      20.94       1.66       9.71
H      22.45       0.70      11.25
H       2.51      27.56      11.51
H       1.00      28.52       9.95
H       1.90      28.45       7.50
H       0.82      27.10       5.88
H      -2.23      30.01       5.52
H      16.32       1.04       7.16
H      17.86       3.10       7.49
H      20.92       0.22       7.16
H      21.99       1.53       5.52
H      18.95       4.44       5.87
H      11.31       8.10      19.09
H      11.65       9.28      14.42
H      10.95      10.94      15.99
H      13.12       6.41      11.79
H      14.37       3.99      15.01
H      13.18       5.40      16.51
H      14.98       4.83      11.60
H      10.18      10.36      19.36
H      19.99      18.36      33.28
H      20.85      17.47      28.61
H      22.63      17.23      30.18
H      17.63      17.65      25.97
H      14.90      17.79      29.18
H      16.72      18.11      30.68
H      15.34      16.84      25.78
H      22.52      18.19      33.55
H      24.54       5.72       4.92
H      23.36       5.43       0.24
H      22.26       3.99       1.81
H      25.12       8.13      40.16
H      26.60      10.42       0.83
H      25.96       8.68       2.33
H      25.56      10.53      39.97
H      23.14       3.61       5.18
H       8.44      23.44      19.09
H       8.10      22.27      14.42
H       8.80      20.60      15.99
H       6.64      25.15      11.79
H       5.39      27.57      15.01
H       6.58      26.15      16.51
H       4.77      26.72      11.60
H       9.57      21.18      19.35
H      -0.25      13.18      33.27
H      -1.09      14.06      28.60
H      -2.88      14.29      30.17
H       2.13      13.90      25.97
H       4.85      13.78      29.20
H       3.03      13.45      30.69
H       4.43      14.73      25.79
H      -2.77      13.33      33.53
H      -4.79      25.83       4.92
H      -3.59      26.12       0.25
H      -2.49      27.55       1.82
H      -5.36      23.43      40.15
H      -6.84      21.14       0.82
H      -6.21      22.87       2.32
H      -5.80      21.03      39.96
H      -3.38      27.93       5.19
C      11.06      12.79      39.75
C       9.71      12.95      40.15
C       9.36      13.89      41.12
C      10.33      14.70      41.77
C      11.67      14.58      41.31
C      12.03      13.64      40.33
C       9.88      15.78       0.21
C       9.43      16.85      41.77
C      10.40      17.65      41.11
C      10.04      18.59      40.13
C       8.70      18.75      39.74
C       7.73      17.91      40.33
C       8.09      16.97      41.31
C       8.84      15.25       1.19
C      10.92      16.31       1.19
C      10.87      17.65       1.67
C      11.80      18.15       2.60
C      12.81      17.31       3.12
C      12.81      15.95       2.73
C      11.87      15.46       1.81
C       8.89      13.91       1.68
C       7.97      13.42       2.62
C       6.96      14.26       3.13
C       6.96      15.62       2.74
C       7.89      16.10       1.81
C      13.77      17.81       4.03
C       5.99      13.76       4.04
C       8.35      19.70      38.74
C      11.41      11.85      38.75
C      24.19      16.22      11.39
C      -9.97      17.31      11.78
C      -8.98      17.15      12.75
C      -8.76      15.91      13.41
C      25.44      14.81      12.96
C      24.44      14.96      11.98
C      -7.61      15.77      14.40
C      -6.45      15.63      13.41
C      -6.24      14.38      12.76
C      -5.24      14.22      11.78
C      -4.44      15.30      11.38
C      -4.69      16.57      11.96
C      -5.68      16.73      12.95
C      -7.55      16.95      15.37
C      -7.66      14.61      15.38
C      -6.47      13.99      15.86
C      -6.51      12.94      16.80
C      27.23      12.48      17.31
C      26.05      13.16      16.93
C      26.10      14.21      16.00
C      -8.73      17.57      15.85
C      -8.70      18.62      16.78
C      -7.47      19.08      17.30
C      -6.29      18.40      16.91
C      -6.33      17.34      15.99
C      27.18      11.40      18.23
C      -7.42      20.17      18.21
C      -3.45      15.13      10.38
C      23.19      16.39      10.39
C      20.61       3.15      25.57
C      21.15       1.91      25.96
C      20.51       1.13      26.94
C      19.32       1.56      27.59
C      18.76       2.78      27.13
C      19.39       3.56      26.15
C      18.62       0.63      28.58
C       0.44      29.99      27.59
C      16.74       0.13      26.94
C      -1.38      29.64      25.96
C      -0.84      28.39      25.57
C       0.38      27.98      26.16
C       1.00      28.77      27.14
C       2.12      30.28      29.56
C      17.64       1.27      29.55
C      16.51       0.55      30.04
C      15.62       1.11      30.97
C      15.84       2.40      31.49
C      17.01       3.09      31.10
C      17.90       2.52      30.17
C      20.74       0.72      30.04
C      21.62       0.16      30.97
C       3.92      29.15      31.49
C       2.74      28.47      31.10
C       1.85      29.04      30.18
C      14.92       2.99      32.40
C       4.84      28.56      32.40
C      -1.49      27.61      24.57
C      21.25       3.93      24.57
C      13.83       5.01      33.23
C      13.81       4.75      34.62
C      13.12       5.59      35.50
C      12.46       6.74      35.01
C      13.12       6.15      32.78
C      11.89       7.72      35.86
C      11.56       9.02      35.40
C      11.16      10.00      36.33
C      11.09       9.70      37.71
C      11.35       8.37      38.11
C      16.07      17.75       4.86
C      15.84      17.89       6.25
C      16.92      18.07       7.14
C      18.24      18.06       6.64
C      17.40      17.79       4.41
C      19.38      18.05       7.50
C      20.66      17.68       7.05
C      21.71      17.52       7.98
C      21.48      17.74       9.35
C      20.21      18.18       9.75
C      25.98       9.44      19.05
C      26.22       9.56      20.44
C      25.83       8.54      21.33
C      25.16       7.39      20.83
C      25.35       8.26      18.60
C      24.59       6.41      21.69
C      23.63       5.48      21.23
C      22.97       4.65      22.15
C      23.27       4.73      23.53
C      24.29       5.62      23.93
C       5.93      26.54      33.23
C       5.95      26.81      34.62
C       6.64      25.96      35.50
C       7.30      24.81      35.00
C       6.64      25.41      32.78
C       7.86      23.83      35.86
C       8.20      22.53      35.40
C       8.59      21.55      36.32
C       8.66      21.84      37.70
C       8.40      23.17      38.10
C       3.70      13.82       4.87
C       3.91      13.68       6.26
C       2.84      13.49       7.14
C       1.51      13.49       6.65
C       2.36      13.78       4.42
C       0.38      13.50       7.50
C      -0.91      13.85       7.04
C      -1.96      14.00       7.96
C      -1.74      13.79       9.34
C      -0.46      13.35       9.74
C      -6.22      22.12      19.04
C      -6.46      22.00      20.43
C      -6.08      23.02      21.32
C      -5.41      24.16      20.83
C      -5.59      23.30      18.59
C      -4.83      25.14      21.68
C      -3.87      26.07      21.23
C      -3.21      26.90      22.16
C      -3.51      26.81      23.53
C      -4.53      25.93      23.93
C      11.06      12.79      29.75
C       9.71      12.95      30.15
C       9.36      13.89      31.12
C      10.33      14.70      31.77
C      11.67      14.58      31.31
C      12.03      13.64      30.33
C       9.88      15.78      32.76
C       9.43      16.85      31.77
C      10.40      17.65      31.11
C      10.04      18.59      30.13
C       8.70      18.75      29.74
C       7.73      17.91      30.33
C       8.09      16.97      31.31
C       8.84      15.25      33.73
C      10.92      16.31      33.73
C      10.87      17.65      34.21
C      11.80      18.15      35.14
C      12.81      17.31      35.66
C      12.81      15.95      35.27
C      11.87      15.46      34.35
C       8.89      13.91      34.22
C       7.97      13.42      35.16
C       6.96      14.26      35.67
C       6.96      15.62      35.28
C       7.89      16.10      34.35
C      13.77      17.81      36.57
C       5.99      13.76      36.59
C       8.35      19.70      28.74
C      11.41      11.85      28.75
C      24.19      16.22       1.39
C      -9.97      17.31       1.78
C      -8.98      17.15       2.75
C      -8.76      15.91       3.41
C      25.44      14.81       2.96
C      24.44      14.96       1.98
C      -7.61      15.77       4.40
C      -6.45      15.63       3.41
C      -6.24      14.38       2.76
C      -5.24      14.22       1.78
C      -4.44      15.30       1.38
C      -4.69      16.57       1.96
C      -5.68      16.73       2.95
C      -7.55      16.95       5.37
C      -7.66      14.61       5.38
C      -6.47      13.99       5.86
C      -6.51      12.94       6.80
C      27.23      12.48       7.31
C      26.05      13.16       6.93
C      26.10      14.21       6.00
C      -8.73      17.57       5.85
C      -8.70      18.62       6.78
C      -7.47      19.08       7.30
C      -6.29      18.40       6.91
C      -6.33      17.34       5.99
C      27.18      11.40       8.23
C      -7.42      20.17       8.21
C      -3.45      15.13       0.38
C      23.19      16.39       0.39
C      20.61       3.15      15.57
C      21.15       1.91      15.96
C      20.51       1.13      16.94
C      19.32       1.56      17.59
C      18.76       2.78      17.13
C      19.39       3.56      16.15
C      18.62       0.63      18.58
C       0.44      29.99      17.59
C      16.74       0.13      16.94
C      -1.38      29.64      15.96
C      -0.84      28.39      15.57
C       0.38      27.98      16.16
C       1.00      28.77      17.14
C       2.12      30.28      19.56
C      17.64       1.27      19.55
C      16.51       0.55      20.04
C      15.62       1.11      20.97
C      15.84       2.40      21.49
C      17.01       3.09      21.10
C      17.90       2.52      20.17
C      20.74       0.72      20.04
C      21.62       0.16      20.97
C       3.92      29.15      21.49
C       2.74      28.47      21.10
C       1.85      29.04      20.18
C      14.92       2.99      22.40
C       4.84      28.56      22.40
C      -1.49      27.61      14.57
C      21.25       3.93      14.57
C      13.83       5.01      23.23
C      13.81       4.75      24.62
C      13.12       5.59      25.50
C      12.46       6.74      25.01
C      13.12       6.15      22.78
C      11.89       7.72      25.86
C      11.56       9.02      25.40
C      11.16      10.00      26.33
C      11.09       9.70      27.71
C      11.35       8.37      28.11
C      16.07      17.75      37.40
C      15.84      17.89      38.79
C      16.92      18.07      39.68
C      18.24      18.06      39.19
C      17.40      17.79      36.96
C      19.38      18.05      40.04
C      20.66      17.68      39.59
C      21.71      17.52      40.52
C      21.48      17.74      41.89
C      20.21      18.18      42.29
C      25.98       9.44       9.05
C      26.22       9.56      10.44
C      25.83       8.54      11.33
C      25.16       7.39      10.83
C      25.35       8.26       8.60
C      24.59       6.41      11.69
C      23.63       5.48      11.23
C      22.97       4.65      12.15
C      23.27       4.73      13.53
C      24.29       5.62      13.93
C       5.93      26.54      23.23
C       5.95      26.81      24.62
C       6.64      25.96      25.50
C       7.30      24.81      25.00
C       6.64      25.41      22.78
C       7.86      23.83      25.86
C       8.20      22.53      25.40
C       8.59      21.55      26.32
C       8.66      21.84      27.70
C       8.40      23.17      28.10
C       3.70      13.82      37.41
C       3.91      13.68      38.80
C       2.84      13.49      39.69
C       1.51      13.49      39.19
C       2.36      13.78      36.96
C       0.38      13.50      40.04
C      -0.91      13.85      39.58
C      -1.96      14.00      40.51
C      -1.74      13.79      41.88
C      -0.46      13.35      42.29
C      -6.22      22.12       9.04
C      -6.46      22.00      10.43
C      -6.08      23.02      11.32
C      -5.41      24.16      10.82
C      -5.59      23.30       8.59
C      -4.83      25.14      11.68
C      -3.87      26.07      11.23
C      -3.21      26.90      12.16
C      -3.51      26.81      13.53
C      -4.53      25.93      13.93
C      11.06      12.79      19.75
C       9.71      12.95      20.15
C       9.36      13.89      21.12
C      10.33      14.70      21.77
C      11.67      14.58      21.31
C      12.03      13.64      20.33
C       9.88      15.78      22.76
C       9.43      16.85      21.77
C      10.40      17.65      21.11
C      10.04      18.59      20.13
C       8.70      18.75      19.74
C       7.73      17.91      20.33
C       8.09      16.97      21.31
C       8.84      15.25      23.73
C      10.92      16.31      23.73
C      10.87      17.65      24.21
C      11.80      18.15      25.14
C      12.81      17.31      25.66
C      12.81      15.95      25.27
C      11.87      15.46      24.35
C       8.89      13.91      24.22
C       7.97      13.42      25.16
C       6.96      14.26      25.67
C       6.96      15.62      25.28
C       7.89      16.10      24.35
C      13.77      17.81      26.57
C       5.99      13.76      26.59
C       8.35      19.70      18.74
C      11.41      11.85      18.75
C      24.19      16.22      33.93
C      -9.97      17.31      34.32
C      -8.98      17.15      35.29
C      -8.76      15.91      35.95
C      25.44      14.81      35.50
C      24.44      14.96      34.52
C      -7.61      15.77      36.94
C      -6.45      15.63      35.95
C      -6.24      14.38      35.30
C      -5.24      14.22      34.32
C      -4.44      15.30      33.92
C      -4.69      16.57      34.51
C      -5.68      16.73      35.49
C      -7.55      16.95      37.91
C      -7.66      14.61      37.92
C      -6.47      13.99      38.40
C      -6.51      12.94      39.34
C      27.23      12.48      39.86
C      26.05      13.16      39.47
C      26.10      14.21      38.54
C      -8.73      17.57      38.39
C      -8.70      18.62      39.32
C      -7.47      19.08      39.84
C      -6.29      18.40      39.45
C      -6.33      17.34      38.53
C      27.18      11.40      40.77
C      -7.42      20.17      40.75
C      -3.45      15.13      32.92
C      23.19      16.39      32.93
C      20.61       3.15       5.57
C      21.15       1.91       5.96
C      20.51       1.13       6.94
C      19.32       1.56       7.59
C      18.76       2.78       7.13
C      19.39       3.56       6.15
C      18.62       0.63       8.58
C       0.44      29.99       7.59
C      16.74       0.13       6.94
C      -1.38      29.64       5.96
C      -0.84      28.39       5.57
C       0.38      27.98       6.16
C       1.00      28.77       7.14
C       2.12      30.28       9.56
C      17.64       1.27       9.55
C      16.51       0.55      10.04
C      15.62       1.11      10.97
C      15.84       2.40      11.49
C      17.01       3.09      11.10
C      17.90       2.52      10.17
C      20.74       0.72      10.04
C      21.62       0.16      10.97
C       3.92      29.15      11.49
C       2.74      28.47      11.10
C       1.85      29.04      10.18
C      14.92       2.99      12.40
C       4.84      28.56      12.40
C      -1.49      27.61       4.57
C      21.25       3.93       4.57
C      13.83       5.01      13.23
C      13.81       4.75      14.62
C      13.12       5.59      15.50
C      12.46       6.74      15.01
C      13.12       6.15      12.78
C      11.89       7.72      15.86
C      11.56       9.02      15.40
C      11.16      10.00      16.33
C      11.09       9.70      17.71
C      11.35       8.37      18.11
C      16.07      17.75      27.40
C      15.84      17.89      28.79
C      16.92      18.07      29.68
C      18.24      18.06      29.19
C      17.40      17.79      26.96
C      19.38      18.05      30.04
C      20.66      17.68      29.59
C      21.71      17.52      30.52
C      21.48      17.74      31.89
C      20.21      18.18      32.29
C      25.98       9.44      41.59
C      26.22       9.56       0.44
C      25.83       8.54       1.33
C      25.16       7.39       0.83
C      25.35       8.26      41.14
C      24.59       6.41       1.69
C      23.63       5.48       1.23
C      22.97       4.65       2.15
C      23.27       4.73       3.53
C      24.29       5.62       3.93
C       5.93      26.54      13.23
C       5.95      26.81      14.62
C       6.64      25.96      15.50
C       7.30      24.81      15.00
C       6.64      25.41      12.78
C       7.86      23.83      15.86
C       8.20      22.53      15.40
C       8.59      21.55      16.32
C       8.66      21.84      17.70
C       8.40      23.17      18.10
C       3.70      13.82      27.41
C       3.91      13.68      28.80
C       2.84      13.49      29.69
C       1.51      13.49      29.19
C       2.36      13.78      26.96
C       0.38      13.50      30.04
C      -0.91      13.85      29.58
C      -1.96      14.00      30.51
C      -1.74      13.79      31.88
C      -0.46      13.35      32.29
C      -6.22      22.12      41.58
C      -6.46      22.00       0.43
C      -6.08      23.02       1.32
C      -5.41      24.16       0.83
C      -5.59      23.30      41.14
C      -4.83      25.14       1.68
C      -3.87      26.07       1.23
C      -3.21      26.90       2.16
C      -3.51      26.81       3.53
C      -4.53      25.93       3.93
N      12.49       6.95      33.66
N      11.76       7.46      37.19
N      14.62       4.32      32.35
N      10.77      10.65      38.63
N      18.42      17.92       5.30
N      19.22      18.29       8.83
N      15.07      17.41       3.98
N      22.46      17.53      10.28
N      24.96       7.31      19.49
N      24.87       6.43      23.02
N      26.18      10.47      18.18
N      22.61       3.98      24.46
N       7.26      24.60      33.66
N       7.99      24.08      37.19
N       5.14      27.24      32.35
N       8.98      20.90      38.63
N       1.34      13.63       5.30
N       0.53      13.26       8.83
N       4.69      14.17       3.99
N      -2.72      13.98      10.27
N      -5.20      24.25      19.48
N      -5.12      25.12      23.01
N      -6.42      21.09      18.16
N      -2.84      27.55      24.46
N      12.49       6.95      23.66
N      11.76       7.46      27.19
N      14.62       4.32      22.35
N      10.77      10.65      28.63
N      18.42      17.92      37.84
N      19.22      18.29      41.38
N      15.07      17.41      36.52
N      22.46      17.53       0.28
N      24.96       7.31       9.49
N      24.87       6.43      13.02
N      26.18      10.47       8.18
N      22.61       3.98      14.46
N       7.26      24.60      23.66
N       7.99      24.08      27.19
N       5.14      27.24      22.35
N       8.98      20.90      28.63
N       1.34      13.63      37.84
N       0.53      13.26      41.37
N       4.69      14.17      36.54
N      -2.72      13.98       0.27
N      -5.20      24.25       9.48
N      -5.12      25.12      13.01
N      -6.42      21.09       8.16
N      -2.84      27.55      14.46
N      12.49       6.95      13.66
N      11.76       7.46      17.19
N      14.62       4.32      12.35
N      10.77      10.65      18.63
N      18.42      17.92      27.84
N      19.22      18.29      31.38
N      15.07      17.41      26.52
N      22.46      17.53      32.82
N      24.96       7.31      42.03
N      24.87       6.43       3.02
N      26.18      10.47      40.72
N      22.61       3.98       4.46
N       7.26      24.60      13.66
N       7.99      24.08      17.19
N       5.14      27.24      12.35
N       8.98      20.90      18.63
N       1.34      13.63      27.84
N       0.53      13.26      31.37
N       4.69      14.17      26.54
N      -2.72      13.98      32.81
N      -5.20      24.25      42.02
N      -5.12      25.12       3.01
N      -6.42      21.09      40.70
N      -2.84      27.55       4.46
O       6.35      12.74       4.86
O      12.47      12.13      37.95
O      13.41      18.84       4.84
O       7.29      19.41      37.94
O      -8.49      20.37      19.02
O      22.91      15.33       9.60
O      28.25      11.20      19.04
O      -3.16      16.19       9.58
O       5.55      29.39      33.21
O      20.47       4.70      23.77
O      14.21       2.17      33.21
O      -0.71      26.84      23.78
O       6.35      12.74      37.40
O      12.47      12.13      27.95
O      13.41      18.84      37.38
O       7.29      19.41      27.94
O      -8.49      20.37       9.02
O      22.91      15.33      42.14
O      28.25      11.20       9.04
O      -3.16      16.19      42.12
O       5.55      29.39      23.21
O      20.47       4.70      13.77
O      14.21       2.17      23.21
O      -0.71      26.84      13.78
O       6.35      12.74      27.40
O      12.47      12.13      17.95
O      13.41      18.84      27.38
O       7.29      19.41      17.94
O      -8.49      20.37      41.56
O      22.91      15.33      32.14
O      28.25      11.20      41.58
O      -3.16      16.19      32.12
O       5.55      29.39      13.21
O      20.47       4.70       3.77
O      14.21       2.17      13.21
O      -0.71      26.84       3.78
