510

Cu       0.52      11.45      19.78
Cu      -0.76       9.68      14.87
Cu      -0.33      11.73       9.96
Cu       1.81      11.49       5.03
Cu      -0.14      10.85       0.11
Cu      -1.03      12.83      24.70
Cu       9.64       6.17       9.75
Cu       8.74       4.15      14.64
Cu      10.29       5.56      19.56
Cu       9.03       7.30      24.49
Cu       9.43       5.26      29.41
Cu      11.60       5.51       4.82
Ni       4.48       8.74      22.42
Ni       0.02      16.52      12.59
Ni      -4.46       8.76       2.74
Ni       5.32       8.26       7.09
Ni      14.26       8.25      16.93
Ni       9.78       0.47      26.77
H       2.73       9.17      17.93
H       2.92       6.90      17.59
H       2.37       4.54      18.17
H       0.72       4.06      19.98
H      -0.36       5.95      21.20
H       0.22       8.30      20.63
H      -3.30       8.77      12.46
H      -3.28      11.94      14.50
H      -4.98      13.74      14.20
H      -6.80      13.47      12.52
H      12.67      11.41      11.13
H      -5.20       9.62      11.43
H       6.54      10.01      22.95
H       6.43       7.05      22.26
H       7.92       9.20      19.74
H       8.01       8.82      21.45
H       2.69      10.53      22.52
H       5.71       7.99      19.58
H       7.12       6.98      19.96
H       4.72      10.87      24.62
H       3.64      12.15      24.02
H       7.26      11.16      20.90
H       5.78      10.50      20.16
H       1.70      10.52      24.73
H       2.99       9.38      25.23
H       2.87       7.00      24.63
H       1.50       6.36      23.69
H       0.69       8.38      24.67
H       0.96       8.78      22.99
H       5.51       5.21      21.15
H       4.36       6.30      20.33
H       2.51       7.30      21.73
H       4.58      11.85      21.71
H       5.85      12.33      22.85
H       4.40       5.75      23.36
H       3.23       5.07      22.20
H       0.51      14.79       8.11
H       2.39      16.10       7.75
H       4.71      16.79       8.33
H       5.95      15.61      10.14
H       4.86      13.72      11.36
H       2.54      13.05      10.78
H       3.88       9.75       2.64
H       1.13       8.16       4.67
H       0.43       5.79       4.37
H       1.57       4.36       2.68
H       3.41       5.32       1.29
H       4.10       7.68       1.60
H       7.65       0.65      13.11
H      10.27       2.03      12.44
H       7.67       2.26       9.90
H       7.94       2.52      11.61
H      -0.63      14.08      12.68
H       9.82       0.94       9.76
H       9.99       2.67      10.14
H      -1.95      15.67      14.78
H      -2.52      14.09      14.18
H       6.30       0.70      11.06
H      -2.15      16.77      10.32
H      -0.13      13.23      14.90
H       0.21      14.90      15.40
H       2.34      16.00      14.80
H       3.57      15.13      13.86
H       2.23      13.42      14.83
H       1.74      13.46      13.15
H      12.32       2.16      11.32
H      11.96       0.62      10.51
H       2.26      15.54      11.90
H      -2.72      15.06      11.87
H      -3.77      15.92      13.01
H      12.42       0.93      13.53
H      13.59       0.25      12.37
H      -3.22      10.02      27.79
H      -5.28      11.02      27.43
H      -7.04      12.68      28.01
H      -6.62      14.37       0.30
H      -4.45      14.36       1.52
H      -2.70      12.68       0.94
H      -0.54      15.51      22.30
H       2.20      13.90      24.34
H       4.60      14.48      24.04
H       5.28      16.19      22.36
H      13.30       0.29      20.97
H       1.14      16.73      21.27
H      15.18       6.34       3.28
H      12.67       7.91       2.59
H      13.78       5.55       0.06
H      13.42       5.65       1.77
H      -2.01       9.41       2.84
H      13.84       8.04      29.43
H      12.26       7.35       0.30
H      -2.73       7.48       4.94
H      -1.08       7.77       4.35
H      15.82       5.14       1.22
H      -3.59       6.75       0.48
H      -1.53      10.27       5.06
H      -3.15       9.73       5.55
H      -5.16      11.02       4.96
H      -5.03      12.52       4.02
H      -2.87      12.22       4.99
H      -2.66      11.78       3.32
H      11.54       9.63       1.48
H      13.06      10.08       0.66
H      -4.72      11.18       2.06
H      -1.81       7.12       2.03
H      -2.03       5.78       3.18
H      12.56      10.33       3.69
H      12.56      11.68       2.53
H       6.56       6.95      11.59
H       4.50       5.97      11.93
H       2.74       4.32      11.35
H       3.15       2.65       9.54
H       5.32       2.66       8.32
H       7.07       4.34       8.90
H       9.22       1.50      17.06
H      11.96       3.10      15.02
H      14.37       2.52      15.32
H      15.04       0.80      16.99
H       3.54      16.71      18.39
H      10.91       0.27      18.08
H       5.40      10.68       6.57
H       2.89       9.10       7.25
H       4.00      11.47       9.78
H       3.64      11.36       8.07
H       7.77       7.60       7.00
H       4.06       8.95       9.93
H       2.48       9.67       9.55
H       7.05       9.53       4.90
H       8.70       9.24       5.49
H       6.04      11.88       8.62
H       6.20      10.27       9.36
H       8.25       6.74       4.78
H       6.63       7.29       4.29
H       4.62       6.00       4.89
H       4.75       4.49       5.82
H       6.90       4.79       4.85
H       7.12       5.24       6.53
H       1.76       7.39       8.37
H       3.27       6.94       9.19
H       5.06       5.83       7.79
H       7.97       9.90       7.81
H       7.75      11.24       6.66
H       2.77       6.69       6.16
H       2.77       5.34       7.32
H      12.52       7.81      21.40
H      12.71      10.09      21.76
H      12.16      12.45      21.19
H      10.52      12.94      19.38
H       9.43      11.05      18.16
H      10.00       8.70      18.72
H       6.47       8.22      26.88
H       6.48       5.04      24.84
H       4.78       3.25      25.15
H       2.97       3.52      26.84
H       2.87       5.59      28.23
H       4.57       7.37      27.91
H      -3.25       6.98      16.40
H      -3.35       9.94      17.08
H      -1.86       7.79      19.61
H      -1.77       8.16      17.90
H      12.47       6.47      16.83
H      -4.07       9.00      19.76
H      -2.66      10.01      19.38
H      14.50       6.12      14.73
H      13.42       4.84      15.33
H      -2.53       5.83      18.45
H      15.56       6.49      19.20
H      11.48       6.48      14.61
H      12.77       7.61      14.12
H      12.66      10.00      14.71
H      11.29      10.64      15.65
H      10.47       8.62      14.68
H      10.75       8.21      16.36
H      -4.27      11.78      18.19
H      -5.42      10.69      19.01
H      12.30       9.70      17.61
H      14.36       5.15      17.64
H      15.63       4.66      16.50
H      -5.38      11.25      15.99
H      -6.55      11.92      17.15
H      10.27       2.22       1.73
H      12.16       0.92       2.09
H      14.47       0.22       1.50
H      15.71       1.38      29.21
H      14.62       3.27      28.00
H      12.30       3.95      28.57
H      13.68       7.27       7.21
H      10.92       8.85       5.17
H      10.22      11.22       5.47
H      11.36      12.66       7.16
H      -6.37      11.70       8.55
H      13.89       9.34       8.24
H      -2.12      16.35      26.24
H       0.51      14.96      26.92
H      -2.10      14.74      29.45
H      -1.83      14.47      27.74
H       9.13       2.91      26.67
H       0.05      16.07       0.08
H       0.23      14.32      29.21
H       7.81       1.33      24.57
H       7.25       2.91      25.17
H      -3.47      16.30      28.29
H       7.61       0.22      29.03
H       9.63       3.76      24.46
H       9.97       2.09      23.96
H      12.10       0.99      24.55
H      13.33       1.86      25.49
H      11.99       3.57      24.52
H      11.50       3.54      26.20
H       2.56      14.84      28.03
H       2.19      16.38      28.85
H      12.01       1.45      27.45
H       7.04       1.94      27.48
H       5.99       1.09      26.34
H       2.65      16.07      25.82
H       3.82      16.74      26.98
C       0.22      10.07      17.40
C      -0.83      11.19      17.37
C       2.77       9.72      20.02
C       2.03       9.18      18.78
C       1.61       7.75      19.07
C       2.21       6.68      18.38
C       1.89       5.36      18.71
C       0.97       5.09      19.72
C       0.37       6.15      20.41
C       0.69       7.47      20.09
C       0.36      10.82      12.62
C      -1.11      10.50      12.27
C      -3.15       9.54      13.23
C      -3.44       8.87      14.60
C      -4.14      10.67      12.98
C      -4.07      11.84      13.76
C      -5.03      12.84      13.59
C      -6.05      12.69      12.64
C      -6.11      11.53      11.87
C      -5.15      10.53      12.04
C       7.30       9.02      20.63
C       6.46       7.78      20.35
C       4.18      11.24      23.73
C       6.55      10.32      20.92
C       2.35       9.69      24.38
C       2.23       7.19      23.76
C       1.49       8.52      23.92
C       4.89       6.12      21.27
C       5.15      11.52      22.59
C       3.88       5.93      22.40
C       0.99      12.16       7.57
C       0.54      10.69       7.54
C       0.03      14.54      10.20
C       0.86      14.18       8.95
C       2.31      14.53       9.23
C       2.94      15.58       8.55
C       4.24      15.97       8.87
C       4.94      15.31       9.88
C       4.32      14.25      10.57
C       3.02      13.87      10.25
C       0.29      11.90       2.77
C       1.30      10.78       2.42
C       3.13       9.49       3.40
C       3.85       9.58       4.77
C       2.66       8.07       3.15
C       1.62       7.53       3.93
C       1.23       6.20       3.75
C       1.87       5.40       2.81
C       2.90       5.93       2.03
C       3.29       7.26       2.20
C       8.13       1.81      10.80
C       9.63       1.70      10.52
C      -1.99      15.01      13.90
C       7.38       0.50      11.09
C       0.26      14.20      14.55
C       2.49      15.35      13.93
C       1.71      14.04      14.09
C      11.85       1.17      11.45
C      -2.72      15.71      12.75
C      12.51       0.39      12.58
C      -1.19      11.77      27.24
C       0.31      12.12      27.21
C      -2.75       9.76       0.36
C      -2.86      10.64      28.62
C      -3.89      11.72      28.91
C      -5.11      11.74      28.22
C      -6.09      12.68      28.55
C      -5.86      13.64       0.05
C      -4.64      13.63       0.73
C      -3.66      12.69       0.41
C      -0.62      11.31      22.43
C      -0.16      12.75      22.08
C       0.05      14.98      23.07
C      -0.39      15.56      24.44
C       1.52      15.27      22.82
C       2.50      14.64      23.59
C       3.85      14.96      23.42
C       4.23      15.93      22.48
C       3.25      16.56      21.71
C       1.90      16.23      21.88
C      13.94       6.17       0.96
C      13.28       7.52       0.68
C      -2.14       7.77       4.06
C      15.44       6.18       1.25
C      -2.56      10.12       4.71
C      -4.68      11.48       4.09
C      -3.15      11.46       4.25
C      12.63       9.71       1.60
C      -2.38       6.79       2.91
C      12.98      10.68       2.73
C       8.59       5.20      12.11
C      10.09       4.84      12.14
C       7.03       7.26       9.50
C       6.92       6.34      10.74
C       5.89       5.27      10.45
C       4.67       5.25      11.13
C       3.68       4.31      10.81
C       3.92       3.38       9.79
C       5.14       3.39       9.11
C       6.12       4.33       9.43
C       9.17       5.70      16.89
C       9.62       4.26      17.24
C       9.82       2.01      16.28
C       9.38       1.43      14.92
C      11.28       1.72      16.53
C      12.26       2.36      15.76
C      13.61       2.03      15.93
C      13.99       1.06      16.87
C      13.02       0.43      17.65
C      11.67       0.76      17.48
C       4.16      10.85       8.89
C       3.50       9.50       9.17
C       7.64       9.25       5.78
C       5.66      10.84       8.60
C       7.21       6.89       5.13
C       5.10       5.54       5.76
C       6.63       5.56       5.59
C       2.85       7.31       8.24
C       7.40      10.23       6.93
C       3.19       6.34       7.11
C      10.01       6.91      21.95
C       8.96       5.79      21.98
C      12.54       7.27      19.31
C      11.81       7.81      20.56
C      11.40       9.25      20.28
C      12.00      10.31      20.97
C      11.68      11.63      20.65
C      10.76      11.91      19.63
C      10.15      10.85      18.94
C      10.48       9.53      19.26
C      10.13       6.16      26.75
C       8.66       6.49      27.09
C       6.62       7.44      26.11
C       6.35       8.11      24.74
C       5.63       6.32      26.36
C       5.69       5.15      25.59
C       4.74       4.15      25.76
C       3.72       4.30      26.71
C       3.66       5.46      27.49
C       4.62       6.46      27.31
C      -2.48       7.97      18.72
C      -3.32       9.22      18.99
C      13.96       5.75      15.61
C      -3.24       6.67      18.43
C      12.13       7.30      14.96
C      12.02       9.81      15.58
C      11.27       8.48      15.42
C      -4.88      10.88      18.07
C      14.93       5.47      16.76
C      -5.89      11.06      16.94
C      10.77       4.85       2.27
C      10.32       6.33       2.31
C       9.80       2.45      29.16
C      10.63       2.84       0.89
C      12.08       2.48       0.61
C      12.70       1.43       1.30
C      14.01       1.04       0.97
C      14.70       1.69      29.47
C      14.09       2.74      28.79
C      12.78       3.13      29.11
C      10.08       5.11       7.09
C      11.09       6.23       7.43
C      12.92       7.53       6.45
C      13.64       7.43       5.08
C      12.44       8.94       6.69
C      11.41       9.48       5.92
C      11.02      10.81       6.09
C      11.66      11.62       7.03
C      12.69      11.09       7.81
C      13.08       9.75       7.64
C      -1.64      15.19      28.56
C      -0.14      15.29      28.83
C       7.77       1.98      25.45
C      -2.38      16.49      28.26
C      10.02       2.79      24.80
C      12.25       1.64      25.43
C      11.47       2.95      25.27
C       2.09      15.82      27.91
C       7.04       1.28      26.60
C       2.75      16.61      26.78
N       0.93      10.07      18.51
N      -1.76       9.95      13.27
N       5.86      10.27      22.23
N       5.73       7.30      21.55
N       3.25      10.17      23.31
N       3.10       7.18      22.56
N       0.64      12.77       8.68
N       2.08      10.48       3.43
N      -1.99      16.95      12.39
N      10.40       1.30      11.73
N      -0.61      14.74      13.47
N       2.06      16.11      12.74
N      -1.53      11.15      28.35
N      -0.29      13.57      23.09
N      -3.82       6.80       2.55
N      13.24       8.39       1.88
N      -2.60       9.11       3.63
N      -5.12      10.73       2.89
N       8.25       5.83      11.01
N       9.48       3.42      16.24
N       5.97      10.22       7.29
N       3.46       8.63       7.97
N       7.18       7.91       6.21
N       4.66       6.29       6.95
N      10.70       6.92      20.83
N       8.01       7.02      26.08
N      15.64       6.72      17.12
N      -4.05       9.69      17.79
N      13.03       6.82      16.04
N      12.89       9.81      16.78
N      10.41       4.24       1.16
N      11.88       6.52       6.42
N       7.77       0.05      26.96
N       0.64      15.69      27.63
N       9.16       2.25      25.88
N      11.82       0.88      26.62
O      -0.88      11.97      18.39
O      -1.59      11.26      16.36
O       0.34       9.24      16.43
O       2.32      10.78      20.59
O       3.76       9.05      20.41
O       0.74      10.54      13.82
O      -1.58      10.76      11.11
O       1.07      11.34      11.73
O      -2.44       8.57      15.35
O      -4.64       8.65      14.90
O      -0.08      10.25       8.58
O       0.83      10.02       6.51
O       1.63      12.68       6.59
O      -0.65      13.62      10.78
O       0.12      15.73      10.60
O       0.34      12.37       3.96
O       1.32      10.25       1.26
O      -0.51      12.26       1.87
O       3.63      10.61       5.50
O       4.61       8.62       5.10
O       1.01      11.79      28.24
O       0.75      12.71      26.18
O      -1.96      12.08      26.27
O      -1.61       9.63       0.93
O      -3.83       9.24       0.75
O      -1.06      11.11      23.62
O       0.30      13.03      20.93
O      -0.54      10.44      21.52
O      -1.16      14.84      25.17
O       0.05      16.70      24.76
O      10.79       5.20      11.12
O      10.52       4.21      13.14
O       7.81       4.88      13.08
O       8.17       7.39       8.93
O       5.95       7.79       9.11
O       8.74       5.88      15.69
O      10.08       3.99      18.41
O       9.26       6.57      17.78
O       8.61       2.14      14.17
O       9.80       0.28      14.61
O       8.89       5.03      20.94
O       8.23       5.70      23.00
O      10.14       7.72      22.93
O      12.09       6.22      18.74
O      13.54       7.94      18.92
O      10.52       6.45      25.56
O       8.18       6.24      28.25
O      10.84       5.65      27.65
O       7.36       8.44      24.02
O       5.14       8.30      24.42
O       9.69       6.76       1.28
O      10.62       7.00       3.33
O      11.42       4.34       3.24
O       9.11       3.37      28.58
O       9.88       1.26      28.76
O      10.12       4.64       5.89
O      11.11       6.76       8.59
O       9.28       4.75       7.99
O      13.41       6.40       4.35
O      14.41       8.38       4.76
