46

Eu       6.65      10.09      14.83
Eu       4.70       6.45      14.73
Eu       6.77      14.90      14.72
O       4.71      14.87      16.00
Eu       4.81       1.64      14.82
O       6.90      18.61      13.57
O       8.11      13.38      13.47
H       4.94      12.51      13.99
O       7.64      11.24      12.91
O       6.16       6.04      12.75
O       6.88      16.88      16.09
O       4.60      10.11      13.57
H       6.52       4.05      13.99
O       6.36      18.96      16.75
H       4.89      12.50      15.53
O       6.75       6.41      16.00
O       5.27      14.50      12.76
O       3.87      16.94      16.40
O       7.73      16.53      13.16
O       5.94       4.06      14.78
O       4.73      16.58      13.43
O       3.60       5.35      16.73
O       6.78       8.07      13.50
H       6.57       4.04      15.53
O       3.72       8.06      13.16
O       3.35       4.91      13.49
O       4.59       8.43      16.10
O       7.60       8.49      16.41
C       3.35       3.94      12.67
O       3.49       3.15      16.19
C       7.49      17.74      12.85
C       3.37       4.13      17.00
C       4.08      15.72      16.71
C       6.84       7.12      12.66
C       8.11      12.40      12.66
C       8.09      12.58      16.99
C       6.95      17.85      16.92
C       4.52       9.40      16.93
C       3.98       9.26      12.84
C       4.62      15.59      12.63
C       7.39       7.27      16.70
O       5.51      12.50      14.78
O       7.86      13.80      16.71
O       7.97      11.60      16.19
O       5.13      10.51      16.76
O       3.80       2.78      12.90
