72

Cu      -1.72       0.70      10.34
Cu       0.92      -2.96       6.35
Cu       3.62       2.30       5.17
Cu       4.39       5.59       0.59
Cu       1.75       9.25       4.58
Cu      -0.95       3.99       5.76
H      -2.39       8.02       2.80
H       4.59       8.43       4.13
H       2.92       6.10       5.56
H       1.93       4.76       5.21
H       0.26       4.65       2.54
H      -0.72       5.62       1.54
H       5.06      -1.73       8.13
H      -1.92      -2.14       6.80
H      -0.25       0.18       5.37
H       0.74       1.53       5.72
H       2.41       1.64       8.39
H       3.39       0.66       9.39
C       3.53       7.75       2.58
C       1.48       7.91       1.96
C       0.02       8.14       1.77
C       0.88       6.45       5.44
C      -1.17       6.91       5.90
C      -2.62       6.96       6.20
C      -1.78       4.61       2.89
C       4.12       3.99       3.05
C       2.67       3.71       2.94
C      -0.86      -1.46       8.35
C       1.19      -1.62       8.97
C       2.65      -1.85       9.16
C       1.79      -0.16       5.49
C       3.84      -0.62       5.03
C       5.29      -0.67       4.73
C       4.45       1.68       8.04
C      -1.45       2.30       7.88
C       0.01       2.58       7.99
N       3.42       7.09       1.39
N       4.68       7.84       3.30
N       2.11       7.22       1.02
N       2.33       8.26       2.96
N       0.77       7.80       5.48
N       2.02       5.78       5.16
N      -0.53       8.07       5.79
N      -0.33       5.86       5.69
N      -1.91       3.91       4.05
N      -0.63       5.18       2.45
N       4.75       3.52       4.12
N       4.98       4.68       2.24
N      -0.75      -0.80       9.54
N      -2.01      -1.55       7.63
N       0.56      -0.93       9.91
N       0.34      -1.97       7.97
N       1.90      -1.51       5.45
N       0.65       0.51       5.77
N       3.20      -1.78       5.14
N       3.00       0.43       5.24
N       4.58       2.38       6.88
N       3.30       1.11       8.48
N      -2.08       2.77       6.81
N      -2.31       1.61       8.69
O      -0.42       7.68       0.62
O      -0.67       8.67       2.65
O      -3.07       8.18       6.37
O      -3.31       5.93       6.22
O       2.21       2.98       3.92
O       1.98       4.19       2.02
O       3.09      -1.39      10.31
O       3.34      -2.38       8.28
O       5.74      -1.89       4.56
O       5.98       0.36       4.72
O       0.46       3.31       7.01
O       0.69       2.10       8.92
