66

H       3.50      11.86       3.09
H       4.88      12.70       4.98
H       3.47       9.44       7.44
H       2.12       8.59       5.59
H      -2.98       8.06       0.43
H      -4.40       7.28      -1.47
H      -0.86       6.39      -3.76
H       0.56       7.13      -1.86
H       8.10       8.11       7.35
H       6.91      10.02       6.24
H       4.93      10.75      10.01
H       6.17       8.83      10.95
H       6.73      15.00      10.00
H       6.86      12.66       9.13
H       3.20      13.46       6.95
H       3.26      15.78       7.89
H      -1.80       9.58      -6.72
H      -2.55       8.89      -4.45
H      -3.65       5.09      -6.16
H      -2.92       5.97      -8.38
H      -4.77       2.18      -2.58
H      -3.16       4.09      -2.54
H      -6.01       6.30      -4.91
H      -7.49       4.33      -4.85
C       1.93       9.67       3.14
C       1.22       9.19       2.25
C       0.43       8.66       1.30
C      -0.30       8.18       0.44
C       2.71      10.17       4.20
C       3.49      11.34       4.05
C       4.26      11.82       5.11
C       4.25      11.14       6.34
C       3.48       9.98       6.49
C       2.72       9.49       5.44
C      -1.11       7.67      -0.60
C      -2.52       7.68      -0.49
C      -3.32       7.25      -1.54
C      -2.72       6.80      -2.73
C      -1.32       6.75      -2.84
C      -0.52       7.18      -1.79
C       7.39       8.73       7.89
C       6.74       9.79       7.29
C       5.84      10.54       8.05
C       5.65      10.22       9.39
C       6.33       9.13       9.92
C       5.98      14.61       9.31
C       6.04      13.31       8.82
C       5.04      12.86       7.94
C       4.01      13.77       7.60
C       4.03      15.05       8.13
C      -2.25       8.60      -6.56
C      -2.65       8.21      -5.29
C      -3.18       6.92      -5.12
C      -3.29       6.10      -6.25
C      -2.87       6.58      -7.48
C      -5.01       3.11      -3.09
C      -4.12       4.18      -3.05
C      -4.44       5.35      -3.74
C      -5.69       5.41      -4.39
C      -6.52       4.28      -4.36
N       5.08      11.57       7.42
N       7.18       8.39       9.18
N       5.01      15.48       8.96
N      -3.53       6.44      -3.85
N      -2.35       7.81      -7.65
N      -6.19       3.13      -3.74
