24

Cu       8.18       3.13       3.45
Cu       1.63       3.12       2.79
Cu       4.90       3.45       3.12
Cu      11.47       2.79       3.11
C       7.89       5.19       5.53
C      14.48       1.05       0.72
C       4.62       5.52       1.05
C      11.18       0.72       5.18
C      11.77       0.71       1.05
C       5.18       5.52       5.18
C       1.91       5.19       0.71
C       8.47       1.05       5.52
I       6.55       1.81       1.81
I      13.10       4.42       4.43
I       3.26       1.81       4.43
I       9.83       4.42       1.81
N       7.22       4.47       4.62
N      13.80       1.77       1.62
N       3.95       4.62       1.77
N      10.51       1.62       4.46
N      12.43       1.62       1.77
N       5.85       4.61       4.47
N       2.58       4.47       1.62
N       9.14       1.78       4.62
