18

Zn       7.22       7.85      11.50
C       5.34       6.30      10.31
C       6.49      10.47      10.47
N       9.20       7.33      11.81
Zn       4.31      10.46      12.63
O       6.52       6.16      10.86
C       5.04       7.83      13.65
O       6.25       7.93      13.27
O       4.14       8.74      13.54
C       6.19      12.00      13.82
C       1.60      10.37      11.29
N       2.32      10.97      12.32
C       9.92       7.94      12.84
C       1.43      11.63      13.08
O       5.01      12.14      13.27
C      10.10       6.67      11.05
O       5.28      10.38      10.86
O       7.39       9.56      10.59
