24

H       7.70      11.32       5.90
H       6.79       9.21       6.89
H      12.99      14.10       8.61
H      11.32       7.70      13.28
H       9.22       6.79      12.29
H      14.10      12.99      10.57
N       9.22      11.55       7.31
N       8.15       9.17       8.46
N      12.71      11.45      10.69
N      11.55       9.22      11.87
N       9.17       8.15      10.71
N      11.45      12.71       8.49
C       8.14      10.88       6.79
C       7.63       9.73       7.34
C       9.23       9.81       8.99
C      10.98       9.77      10.76
C      11.57      10.95      10.15
C      13.19      12.57      10.13
C      10.89       8.14      12.39
C       9.73       7.63      11.84
C       9.81       9.23      10.18
C       9.77      10.98       8.42
C      10.95      11.57       9.03
C      12.57      13.19       9.05
