24

H       3.82       0.19      12.29
H       4.73       2.30      13.28
H      -1.48      -2.59      15.00
H       0.19       3.82      19.68
H       2.30       4.73      18.69
N       2.29      -0.03      13.70
N       3.37       2.35      14.86
N      -1.19       0.06      17.08
H      -2.59      -1.48      16.96
N      -0.03       2.29      18.26
N       2.35       3.37      17.11
N       0.06      -1.19      14.88
C       3.37       0.63      13.18
C       3.88       1.78      13.74
C       2.28       1.70      15.39
C       0.53       1.74      17.15
C      -0.06       0.56      16.54
C      -1.68      -1.06      16.53
C       0.63       3.37      18.79
C       1.78       3.88      18.23
C       1.71       2.28      16.58
C       1.74       0.53      14.82
C       0.56      -0.06      15.42
C      -1.06      -1.68      15.44
