24

C       9.12       5.13       9.20
H       5.94       1.94       2.70
H       8.05       1.03       3.69
C       9.64       3.97       8.64
C       8.04       4.05       6.99
C       6.29       4.01       5.23
C       5.70       5.19       5.83
C       4.08       6.82       5.85
H       3.17       7.23       5.41
N       5.72       3.46       4.11
N       8.10       2.39       5.27
N       5.82       6.95       7.49
H       9.57       5.57      10.08
H      10.48       3.46       9.10
H       4.28       8.35       7.37
N       8.05       5.79       8.67
C       6.38       2.39       3.59
C       7.54       1.87       4.15
C       7.46       3.47       5.80
C       7.50       5.22       7.56
C       6.32       5.81       6.95
N       9.12       3.41       7.52
N       4.56       5.69       5.29
C       4.70       7.44       6.93
