23

O       5.03       6.85       5.34
O       4.81       4.67       6.00
Zn       3.45       4.58       7.38
Zn       3.41       7.83       5.97
Zn       0.62       3.66       9.35
O       2.06       2.29       9.36
O       4.01       3.00       8.41
C       1.58       6.26       4.45
O       0.98       5.38      10.24
O       3.43       5.92       8.82
O       3.26       8.01       7.92
O       3.75       9.54       5.08
C      -1.45       1.75       9.71
C       0.55       4.40       6.51
C       5.33       5.62       5.33
C       3.31       2.26       9.17
C       3.25       7.18       8.88
C       1.98       5.58      11.03
C       4.52      10.41       5.64
O      -0.75       2.65      10.32
O       1.66       7.09       5.43
O      -0.10       4.22       7.58
O       1.81       4.35       6.34
