180

C      31.56      10.42      26.64
C       6.52      10.46       0.63
C       7.79       9.92       0.32
C       7.96       9.35      25.92
C       6.81       9.01      25.13
C      31.69       9.62      25.45
C      30.35      11.13       0.07
C      29.61      10.92       1.29
C      28.42      11.70       1.57
C      28.06      12.77       0.67
C      28.75      12.94      26.33
C      29.83      12.07      26.04
C      28.46      14.02      25.45
C      27.57      11.39       2.68
C       6.99       8.10      24.04
C       8.89       9.94       1.23
C      17.30      10.81       8.70
C      16.78       9.84       9.60
C      15.67       9.01       9.28
C      15.09       9.14       7.98
C      15.37      10.31       7.19
C      16.53      11.10       7.51
C      18.51      11.51       9.04
C      18.70      12.25      10.26
C      19.97      12.89      10.53
C      21.07      12.67       9.64
C      20.88      11.99       8.39
C      19.58      11.49       8.10
C      21.96      11.70       7.51
C      20.13      13.78      11.65
C      14.50      10.61       6.10
C      15.14       8.05      10.20
C      11.69       0.33      17.67
C      11.11       1.27      18.57
C      10.94       2.64      18.25
C      11.35       3.07      16.95
C      12.21       2.25      16.16
C      12.32       0.85      16.48
C      24.76      21.57      18.01
C      25.31      21.03      19.23
C      25.23      19.62      19.50
C      24.48      18.77      18.61
C      23.99      19.28      17.36
C      24.20      20.65      17.07
C      23.19      18.49      16.48
C      25.92      19.03      20.61
C      12.92       2.85      15.07
C      10.37       3.58      19.17
C       8.54       5.47      20.89
C       9.35       4.35      21.27
C       9.51       4.18      22.67
C       8.27       6.16      23.17
C       8.10       5.77      19.50
C      11.44      10.59       2.95
C      10.07      10.44       3.34
C       9.84      10.39       4.73
C      12.17      10.47       5.23
C      11.92      10.81       1.57
C      14.42       5.51      11.92
C      14.98       6.77      12.30
C      15.05       7.00      13.70
C      13.96       4.94      14.20
C      14.38       4.99      10.53
C      27.66      15.72      21.01
C      27.10      16.95      21.46
C      27.13      17.17      22.85
C      28.17      15.04      23.26
C      27.71      15.30      19.59
C      23.83      11.54       3.07
C      25.17      11.42       3.52
C      25.35      11.28       4.92
C      22.99      11.44       5.32
C      23.44      11.70       1.65
C      22.13      16.95      12.04
C      21.35      15.85      12.49
C      21.14      15.76      13.88
C      22.46      17.73      14.29
C      22.46      17.20      10.62
H       6.42      10.97       1.52
H      30.36      12.23      25.18
H      29.68       9.59      25.02
H      30.57       8.71      23.98
H      29.45       9.59       2.86
H      30.64       9.22       1.82
H      26.83      13.78       1.96
H      26.62      14.24       0.42
H       9.32       9.11      24.40
H       9.97       9.74      25.74
H      27.99      14.84      25.84
H       6.37       8.14      23.23
H       9.71       9.41       0.94
H      27.96      10.97       3.52
H      17.26       9.67      10.48
H      19.46      10.94       7.24
H      17.51      12.85       7.08
H      16.31      12.52       6.04
H      17.62      13.06      11.83
H      16.71      12.22      10.78
H      22.57      13.24      10.93
H      23.07      13.18       9.38
H      14.21       8.09       6.46
H      14.43       7.21       7.80
H      22.90      11.70       7.90
H      14.84      11.13       5.29
H      14.27       7.60       9.91
H      19.57      13.66      12.49
H      10.71       0.93      19.45
H      23.79      21.03      16.21
H      26.42      21.76      16.05
H      13.67       0.33      15.01
H      26.55      21.56      20.79
H      13.20       0.13      19.75
H      24.23      17.19      19.90
H      23.93      16.79      18.35
H      10.88       4.38      15.43
H      10.02       4.63      16.78
H      22.73      17.67      16.87
H      13.19       2.30      14.26
H      10.42       4.55      18.88
H      26.09      19.58      21.46
H      10.09       3.42      23.03
H       7.80       4.85      19.00
H       8.91       6.25      18.95
H       7.25       6.45      19.49
H       8.89      10.27       5.09
H      11.28      11.54       1.06
H      11.93       9.87       1.01
H      12.93      11.21       1.56
H      15.42       7.88      14.06
H      15.32       5.18      10.02
H      13.56       5.44       9.98
H      14.22       3.91      10.52
H      26.72      18.01      23.26
H      27.30      16.05      18.91
H      27.15      14.38      19.46
H      28.75      15.12      19.30
H      26.28      11.22       5.32
H      24.29      11.69       0.97
H      22.92      12.65       1.52
H      22.77      10.89       1.37
H      20.62      14.99      14.29
H      22.03      16.47       9.94
H      23.55      17.18      10.49
H      22.10      18.19      10.33
N       9.21       9.28      25.35
N      27.07      13.64       1.03
N      30.57       9.32      24.73
N      29.95       9.86       2.08
N      14.41       8.10       7.41
N      22.33      13.09      10.00
N      16.84      12.22       6.79
N      17.60      12.49      11.05
N      10.79       4.19      16.38
N      24.22      17.47      18.97
N      13.14       0.02      15.76
N      26.06      21.87      20.02
N       9.02       5.09      23.55
N       8.03       6.30      21.84
N       7.86       7.05      24.10
N       9.99       3.44      20.46
N      10.87      10.35       5.62
N      12.42      10.61       3.91
N      13.16      10.38       6.16
N       8.96      10.34       2.53
N      14.51       6.12      14.58
N      13.95       4.66      12.87
N      13.39       4.13      15.13
N      15.45       7.78      11.49
N      27.63      16.22      23.69
N      28.17      14.83      21.91
N      28.59      14.05      24.09
N      26.49      17.79      20.58
N      24.28      11.32       5.76
N      22.81      11.54       3.98
N      21.92      11.58       6.16
N      26.21      11.52       2.64
N      21.71      16.67      14.72
N      22.64      17.83      12.95
N      23.11      18.59      15.13
N      20.92      14.89      11.61
