10

N       9.31       2.76      13.88
Ag      10.31       2.32      11.96
C      12.59       4.64      11.99
C      11.88       4.39       9.80
N      11.81       3.99      11.09
C       8.79       3.92      14.37
C       9.28       1.68      14.70
N      10.72       0.57      10.69
C      11.61       0.62       9.65
C      10.54      -0.65      11.27
