10

Ag      11.09      20.52      10.88
C       8.80      18.20      10.85
C       9.52      18.45      13.04
N      10.68      22.27      12.15
C      12.61      18.92       8.47
N      12.09      20.07       8.96
N       9.59      18.84      11.75
C      12.12      21.15       8.14
C       9.78      22.22      13.19
C      10.86      23.49      11.57
