28

Mn       5.57      14.17      17.17
Mn       9.24      14.23      17.08
O       8.44      15.67      15.79
O       6.23      15.83      15.96
O       0.05      14.06      19.08
Mn       0.16      13.15      17.08
O      -1.75      12.99      18.45
Mn      -3.51      13.21      17.17
O       2.11      13.40      16.31
O      -0.43      14.92      16.10
O       4.04      14.17      15.63
O      -2.65      14.81      16.06
C       7.34      16.22      15.55
C      -1.09      13.59      19.34
C       2.88      13.76      15.41
C      -1.56      15.35      15.79
O      11.19      13.97      16.31
O       8.65      12.45      16.10
C      11.96      13.62      15.41
O      13.13      13.21      15.63
O       6.43      12.57      16.06
C       7.53      12.02      15.79
O       9.13      13.32      19.08
O       7.33      14.38      18.45
C       7.99      13.79      19.34
O      -0.64      11.71      15.79
O      -2.85      11.55      15.96
C      -1.74      11.16      15.55
