84

C      10.17      18.77       3.76
C       9.44      19.67       2.96
C       8.10      19.96       3.33
C       7.49      19.19       4.33
C       8.21      18.24       5.08
C       9.60      18.11       4.86
C      10.54      17.36       5.78
C       7.29      21.09       2.71
H       6.60      19.10       7.02
H       6.38      14.17       6.60
C       3.88      14.05      10.47
C       2.71      13.64       9.83
C       2.52      13.97       8.46
C       3.51      14.69       7.79
C       4.69      15.10       8.43
C       4.90      14.75       9.79
C       6.17      15.04      10.57
C       1.25      13.58       7.72
H      10.09      12.46       4.31
H       7.35      16.45       3.29
H       1.53      19.39       8.43
H       5.96      18.07      10.21
H      11.22      18.60       3.55
H       6.44      19.31       4.54
H       4.03      13.79      11.51
H       3.38      14.96       6.75
O       1.29      13.36      11.71
O       1.27      11.77      10.18
C       1.71      12.88      10.61
O       1.35      19.53      12.04
C       1.78      20.07      10.97
O       1.33      21.18      10.57
C      10.15      13.03       1.76
C      10.14      20.27       1.78
O      11.23      13.51       1.30
O       9.73      11.89       1.39
C       7.43      17.38       6.03
C       7.37      15.96       5.90
C       6.47      15.24       6.72
C       5.65      15.90       7.64
C       5.67      17.30       7.72
C       6.59      18.02       6.95
O      11.20      19.72       1.35
O       9.71      21.33       1.23
F      10.51      13.10       6.67
F       8.35      12.50       6.86
F       9.05      14.54       7.53
F       9.02      14.75       0.10
F       9.18      16.76       1.07
F       7.17      15.77       0.81
F       2.64      19.37       5.96
F       1.81      17.37       6.59
F       3.89      17.53       5.78
F       3.69      18.54      12.97
F       4.24      20.65      12.38
F       5.79      19.03      12.37
C       9.51      13.35       4.10
C       9.40      13.78       2.78
C       8.64      14.94       2.48
C       7.99      15.60       3.53
C       8.13      15.20       4.87
C       8.92      14.06       5.16
C       9.20      13.56       6.57
C       8.51      15.55       1.10
C       2.50      19.09       8.83
C       2.81      19.37      10.16
C       4.07      19.00      10.69
C       4.99      18.35       9.84
C       4.67      18.04       8.52
C       3.40      18.42       7.99
C       2.95      18.16       6.56
C       4.45      19.31      12.12
F      11.62      18.16       6.10
F      11.01      16.22       5.14
F       9.94      17.00       6.97
F       7.12      20.88       1.36
F       7.95      22.29       2.90
F       6.04      21.22       3.27
F       6.70      13.85      11.03
F       5.86      15.84      11.66
F       7.14      15.68       9.82
F       0.15      13.96       8.46
F       1.24      12.21       7.53
F       1.17      14.19       6.48
