84

F      20.56       1.97      17.78
F      20.43       4.10      17.13
H      25.99       6.32      14.52
H      25.78       6.63      19.45
H      27.97      11.12      20.20
H      29.29       6.89      18.00
H      24.09       1.18      14.76
H      23.03       6.01      14.84
H      30.40       7.79      13.28
H      26.96       9.88      16.14
C      23.92       2.96      20.28
C      22.58       2.76      19.91
C      22.07       3.50      18.80
C      22.90       4.46      18.19
C      24.26       4.60      18.52
C      24.79       3.81      19.58
C      26.25       3.83      19.99
C      20.68       3.28      18.22
O      30.92      11.56      13.61
H      24.32       2.40      21.12
H      22.50       5.11      17.42
O      31.06       9.88      12.19
C      30.55      10.40      13.24
C      30.53      10.56      20.61
O      30.95      11.68      20.19
C      21.79       1.75      20.69
O      30.93      10.09      21.72
C      22.02       1.74      13.23
O      20.64       1.38      20.32
O      22.31       1.25      21.74
O      20.91       1.29      13.65
O      22.52       1.36      12.13
F      25.11       9.04      19.98
F      25.24       9.78      17.86
F      25.69      11.16      19.56
F      31.83       7.85      20.47
F      32.22       9.09      18.62
F      31.60       6.95      18.43
C      25.15       5.48      16.31
C      25.09       5.55      17.72
C      25.84       6.54      18.38
C      26.73       7.36      17.68
C      26.83       7.25      16.27
C      25.98       6.36      15.60
C      28.25      10.19      19.72
C      29.58       9.77      19.80
C      29.98       8.57      19.17
C      29.01       7.81      18.49
C      27.67       8.22      18.44
C      27.27       9.42      19.07
C      25.81       9.86      19.12
C      31.42       8.11      19.17
F      25.61       1.98      17.35
F      26.94       3.46      16.30
F      26.48       1.51      15.33
F      20.10       4.03      13.74
F      21.42       4.33      11.94
F      21.13       5.99      13.41
F      30.31       5.62      14.20
F      28.12       5.33      13.83
F      28.92       5.40      15.93
F      28.38      12.35      13.71
F      29.54      12.32      15.65
F      27.32      12.12      15.66
C      23.87       2.24      14.77
C      22.77       2.71      14.05
C      22.45       4.08      14.06
C      23.26       4.96      14.80
C      24.37       4.49      15.52
C      24.71       3.11      15.47
C      25.95       2.52      16.12
C      21.26       4.62      13.28
C      29.66       8.26      13.91
C      29.61       9.67      14.00
C      28.64      10.27      14.85
C      27.74       9.44      15.54
C      27.81       8.04      15.48
C      28.82       7.44      14.68
C      29.04       5.93      14.66
C      28.47      11.78      14.97
F      26.63       2.60      20.52
F      26.44       4.79      20.97
F      27.09       4.08      18.93
F      19.71       3.55      19.16
