84

H      25.39      26.47      19.50
H      25.69      26.13      14.56
H      30.53      24.96      14.02
H      26.52      22.87      16.02
H      21.38      28.59      20.76
H      24.73      29.76      17.31
H      29.90      25.31      21.02
H      26.55      23.02      18.23
C      21.95      29.10      14.48
C      22.72      30.04      13.78
C      24.14      29.91      13.80
C      24.72      28.91      14.59
C      23.94      27.99      15.31
C      22.53      28.04      15.20
C      21.60      26.99      15.77
C      25.06      30.84      13.02
H      20.87      29.17      14.45
H      25.79      28.84      14.68
O      30.72      21.60      20.55
O      30.81      23.25      22.00
C      30.29      22.71      20.97
C      30.53      22.36      13.63
O      30.97      21.24      14.01
O      30.97      22.89      12.56
C      21.68      31.20      20.54
C      22.01      31.12      13.05
O      20.53      31.64      20.22
O      22.27      31.61      21.58
O      20.89      31.55      13.48
O      22.51      31.62      11.99
C      24.57      27.15      17.62
C      24.67      27.06      16.21
C      25.62      26.20      15.64
C      26.54      25.49      16.43
C      26.46      25.60      17.84
F      28.91      27.24      16.54
F      30.19      27.17      14.71
F      28.35      20.42      13.87
F      27.05      20.61      15.68
C      25.45      26.38      18.42
F      29.27      20.46      15.92
F      27.98      27.46      14.50
C      29.67      24.50      14.49
C      29.53      23.11      14.43
C      28.41      22.49      15.05
C      27.43      23.31      15.64
C      27.60      24.70      15.75
C      28.74      25.31      15.17
C      28.96      26.81      15.23
C      28.26      20.98      15.13
F      22.93      26.09      20.90
F      22.80      25.44      18.75
F      21.00      26.26      19.76
F      24.12      32.61      19.47
F      22.39      32.63      18.02
F      24.45      32.11      17.31
F      29.81      27.42      19.50
F      28.12      27.46      20.98
F      27.72      27.79      18.81
F      26.97      20.81      18.84
F      28.15      20.70      20.72
F      29.19      20.66      18.72
C      22.09      28.84      19.98
C      22.34      30.19      19.70
C      23.27      30.53      18.70
C      23.96      29.51      18.03
C      23.71      28.15      18.30
C      22.74      27.81      19.28
C      22.38      26.38      19.67
C      23.56      31.99      18.37
C      29.20      24.79      20.38
C      29.26      23.39      20.28
C      28.28      22.72      19.48
C      27.35      23.50      18.77
C      27.41      24.90      18.74
C      28.34      25.57      19.58
C      28.48      27.08      19.71
C      28.15      21.21      19.44
F      20.66      26.63      14.82
F      20.93      27.51      16.86
F      22.26      25.84      16.15
F      24.77      32.16      13.31
F      24.90      30.62      11.66
F      26.40      30.63      13.32
