84

C       7.94      13.79      31.50
C       9.32      13.65      31.30
C       9.91      14.13      30.11
C       9.09      14.81      29.18
C       7.73      15.00      29.41
C       7.13      14.46      30.57
C       5.63      14.57      30.83
C      11.37      13.89      29.79
H       6.53      19.04      27.40
H       5.97      14.12      27.58
C       2.78      19.88      25.54
C       2.76      19.67      24.15
C       3.69      18.76      23.57
C       4.57      18.06      24.43
C       4.52      18.21      25.82
C       3.63      19.15      26.39
C       3.56      19.43      27.89
C       3.78      18.53      22.08
H      11.04      19.25      30.06
H       6.26      18.10      30.62
H       1.11      14.02      25.63
H       5.79      14.97      24.31
H       7.50      13.37      32.40
H       9.52      15.19      28.26
H       2.11      20.61      25.97
H       5.30      17.38      24.01
O       1.26      19.90      22.30
O       1.26      21.49      23.81
C       1.72      20.40      23.37
C       1.65      13.04      23.26
O       1.26      13.52      22.15
O       1.21      11.93      23.68
C      10.10      12.97      32.36
C      10.09      20.15      32.36
O      11.19      13.47      32.79
O       9.64      11.91      32.88
O      11.18      19.72      32.83
O       9.63      21.28      32.73
C       5.41      17.36      26.65
C       5.27      15.95      26.69
C       6.07      15.19      27.56
C       6.97      15.82      28.43
C       7.15      17.22      28.35
C       6.39      17.97      27.44
F      10.56      19.23      27.36
F       9.38      17.38      26.91
F      11.22      17.25      28.18
F       6.98      20.78      32.78
F       7.94      19.07      33.91
F       5.98      18.78      32.86
F       1.86      16.73      27.31
F       3.29      15.51      28.54
F       1.33      14.65      27.94
F       3.77      14.37      21.36
F       4.22      12.30      22.15
F       5.79      13.90      22.20
C      10.00      18.97      30.19
C       9.34      19.36      31.37
C       7.97      19.03      31.54
C       7.31      18.33      30.52
C       7.97      17.95      29.34
C       9.33      18.29      29.16
C      10.12      18.03      27.88
C       7.21      19.42      32.79
C       2.14      14.23      25.35
C       2.59      13.80      24.10
C       3.92      14.08      23.70
C       4.76      14.76      24.59
C       4.30      15.23      25.83
C       2.97      14.95      26.23
C       2.36      15.47      27.52
C       4.44      13.66      22.34
F       4.96      13.75      29.94
F       5.20      15.87      30.66
F       5.30      14.17      32.11
F      11.66      12.55      29.95
F      12.16      14.66      30.63
F      11.67      14.24      28.48
F       3.73      18.27      28.63
F       2.34      19.97      28.25
F       4.55      20.33      28.23
F       3.83      19.74      21.41
F       2.69      17.81      21.65
F       4.92      17.82      21.73
