84

C      12.74       4.27      24.44
C      13.14       2.93      24.46
C      14.22       2.55      25.29
C      14.81       3.50      26.13
C      14.54       4.86      25.99
C      13.49       5.27      25.12
C      13.16       6.73      24.86
C      14.77       1.16      25.28
H      18.65       6.42      27.67
H      13.70       6.72      27.73
H      19.44       1.83      26.02
H      16.91       5.67      24.17
C      19.16       9.96      30.22
C      19.04       9.60      31.57
C      18.31       8.45      31.94
C      17.68       7.71      30.92
C      17.76       8.08      29.57
C      18.53       9.22      29.21
H      12.45       8.06      32.11
H      15.81      10.00      29.05
C      18.17       8.03      33.39
C      18.68       9.65      27.76
H      11.89       4.56      23.84
H      15.54       3.19      26.85
H      19.76      10.82      29.97
H      17.09       6.84      31.18
C      19.43       1.75      23.37
C      12.50       1.98      23.65
O      18.90       1.40      22.27
C      12.72      10.66      32.55
O      20.50       1.19      23.76
C      19.71      10.44      32.58
O      13.13       1.43      22.69
O      11.31       1.62      23.92
O      13.15      11.77      32.98
C      16.82       5.67      26.81
C      15.40       5.79      26.79
O      11.61      10.20      32.98
C      14.78       6.66      27.70
C      16.94       7.34      28.59
C      15.52       7.40      28.63
C      17.57       6.49      27.68
O      19.20      11.56      32.91
O      20.80      10.05      33.09
F      18.79       2.07      28.28
F      17.23       3.62      28.65
F      19.39       4.21      28.50
F      17.22       3.25      21.57
F      19.30       4.13      21.67
F      17.51       5.44      21.91
C      18.88       2.67      25.61
C      18.78       2.79      24.22
C      18.07       3.91      23.68
C      17.47       4.83      24.56
C      17.55       4.69      25.95
C      18.28       3.59      26.50
C      18.42       3.37      28.00
C      18.02       4.18      22.19
F      13.18       5.78      31.92
F      14.79       5.42      30.42
F      12.67       5.78      29.74
F      15.66      11.88      32.25
F      14.18      12.74      30.78
F      16.18      12.04      30.09
C      13.21       8.48      31.47
C      13.52       9.85      31.58
F      12.59       6.89      23.61
F      14.30       7.51      24.89
F      12.26       7.18      25.81
C      14.56      10.39      30.76
C      15.10       9.58      29.75
C      14.80       8.21      29.66
C      13.89       7.64      30.58
C      13.63       6.14      30.66
C      15.15      11.78      30.97
F      13.76       0.25      25.47
F      15.36       0.97      24.05
F      15.72       0.97      26.27
F      19.29      10.89      27.65
F      17.45       9.73      27.15
F      19.46       8.73      27.08
F      17.62       9.07      34.12
F      19.42       7.73      33.90
F      17.37       6.92      33.53
