74

Zn      -1.99      12.26       7.06
Zn       2.38       0.32       6.99
H       2.57       1.27      10.04
H       1.54       3.14      11.39
H      -0.04       5.81       9.90
H       1.04       3.93       8.66
H      -2.35       6.58      10.54
H       1.29       5.62      11.70
H      -1.70       8.09      13.64
H      -3.01       7.83      12.49
H       0.29       7.48      11.15
H       1.31       9.05       9.46
H      -1.82      11.86      10.24
H      -2.78      10.33      11.99
H      -1.42       4.53      13.26
H      -0.30       6.86       0.10
H      -2.18      11.31       4.00
H      -1.15       9.44       2.66
H       0.42       6.77       4.15
H      -0.65       8.65       5.39
H       2.74       6.00       3.51
H      -0.90       6.96       2.35
H       2.08       4.50       0.41
H       3.40       4.75       1.56
H       0.10       5.10       2.90
H      -0.92       3.53       4.59
H       2.21       0.73       3.81
H       3.16       2.25       2.06
H       1.81       8.05       0.79
H       0.69       5.72      13.95
C       0.17       1.41       8.48
C      -0.42       2.48       9.32
C      -1.59       2.27      10.04
C      -2.21       3.34      10.72
C      -1.62       4.61      10.68
C      -0.44       4.81       9.97
C       0.20       3.76       9.32
C      -2.25       5.82      11.33
C      -1.90       7.78      12.60
C      -1.29       8.78      11.65
C      -0.12       8.47      10.98
C       0.49       9.36      10.10
C      -0.16      10.58       9.82
C      -1.34      10.91      10.48
C      -1.93      10.02      11.39
C       0.39      11.47       8.78
C      -1.43       5.58      13.59
C       0.22      11.17       5.57
C       0.80      10.10       4.73
C       1.97      10.31       4.01
C       2.59       9.25       3.33
C       2.01       7.97       3.37
C       0.83       7.77       4.08
C       0.18       8.83       4.73
C       2.64       6.76       2.72
C       2.29       4.80       1.45
C       1.68       3.80       2.40
C       0.51       4.12       3.07
C      -0.10       3.22       3.95
C       0.55       2.00       4.23
C       1.73       1.67       3.57
C       2.32       2.57       2.66
C      -0.00       1.11       5.27
C       1.81       7.00       0.46
N      -1.41       6.41      12.37
N       1.80       6.17       1.68
O      -0.48       0.31       8.34
O       1.28       1.70       7.92
O       1.49      11.10       8.25
O      -0.29      12.52       8.45
O       0.87      12.28       5.71
O      -0.89      10.89       6.13
O      -1.10       1.48       5.80
O       0.68       0.07       5.60
