11

P       0.07       9.42      12.69
H       1.67       8.21      12.73
O       1.48       8.85      12.26
O      -0.41       8.83      13.98
O       0.14      10.91      12.61
H      -1.89       9.28      11.40
O      -0.39       9.40      10.11
O      -1.63       6.79      12.19
O      -0.78       6.81      10.13
C      -1.00       8.88      11.30
C      -1.14       7.38      11.20
