11

P       0.87       4.34       7.39
O       2.27       3.77       7.82
O       0.39       3.75       6.09
O       0.94       5.83       7.47
O       0.40       4.31       9.97
H       2.46       3.12       7.35
H      -1.09       4.20       8.67
O      -0.83       1.70       7.88
O       0.02       1.73       9.94
C      -0.20       3.80       8.78
C      -0.34       2.29       8.87
