48

H      12.80       0.04      24.72
H      10.57       1.70      21.45
H      10.71      -2.57      21.99
H      10.31      -3.57      24.14
H      10.97      -5.44      25.65
H      14.84      -3.68      26.18
H      14.22      -1.82      24.63
H      14.22       2.05      23.68
H      14.74       4.42      24.32
H      10.57       5.40      24.16
H      10.03       3.05      23.51
H      11.02       0.78      19.24
H       9.62       0.72      17.18
C      11.80      -1.40      23.46
C      12.20      -0.10      23.83
C      11.75       1.02      23.12
C      10.93       0.83      22.00
C      10.56      -0.45      21.58
C      10.98      -1.57      22.32
C      12.21      -2.55      24.29
C      11.31      -3.60      24.57
H       8.29      -1.95      21.16
H       6.86      -1.94      19.09
C      11.67      -4.64      25.42
C      13.50      -2.60      24.87
C      13.85      -3.64      25.73
C      12.09       2.40      23.54
C      13.42       2.79      23.80
C      12.94      -4.67      26.02
C      12.69       5.05      24.27
C      13.35      -5.76      26.95
C      13.72       4.10      24.15
C      11.06       3.35      23.68
C      11.36       4.66      24.05
C       9.74      -0.57      20.35
C      10.11       0.18      19.22
C       9.33       0.16      18.07
C       8.15      -0.60      18.02
C       7.79      -1.36      19.14
C       8.58      -1.36      20.29
C       7.30      -0.56      16.80
C      12.98       6.47      24.63
O      12.59      -6.79      27.10
O      14.46      -5.65      27.57
O      14.18       6.85      24.89
O      11.99       7.29      24.68
O       7.75       0.06      15.77
O       6.15      -1.12      16.85
