49

H       0.75       2.17      18.02
H      -7.26       2.73      18.26
C      -8.68       3.68      19.57
C      -7.39       3.43      19.07
C      -6.25       4.01      19.65
C      -6.42       4.85      20.76
H      -9.81       4.75      21.07
C      -8.82       4.51      20.69
H      -5.59       3.43      17.07
H      -3.39       2.67      16.23
H      -1.69       3.23      20.14
H      -3.90       3.88      21.02
C      -9.84       3.07      18.88
C      -9.72       2.66      17.54
H      -9.60       6.14      25.43
C     -13.09       1.18      16.80
H      -9.45       4.78      23.35
C     -11.08       2.87      19.52
C      -4.92       3.69      19.11
C      -4.75       3.36      17.75
C      -3.51       2.94      17.27
C      -2.40       2.89      18.13
C      -2.55       3.27      19.48
C      -3.79       3.65      19.96
C      -1.11       2.42      17.61
C      -7.83       5.93      22.51
C      -6.96       7.02      22.72
C      -7.03       7.77      23.89
C      -8.86       6.38      24.66
C      -8.79       5.63      23.49
C      -7.98       7.45      24.87
C      -8.04       8.25      26.12
H      -5.55       5.30      21.24
H     -11.19       3.16      20.57
H     -13.09       2.11      19.36
H     -10.66       1.79      15.82
C      -7.69       5.09      21.30
H      -8.78       2.82      17.00
O     -14.28       1.19      17.28
O     -12.86       0.57      15.69
O      -1.01       1.82      16.51
O      -0.07       2.65      18.41
O      -7.14       9.14      26.35
O      -9.00       8.07      26.96
C     -12.14       2.28      18.85
C     -11.99       1.86      17.52
H      -6.24       7.29      21.95
C     -10.77       2.07      16.86
H      -6.36       8.61      24.04
