28

Mn       2.30       3.83       7.75
Co      -0.40       2.44       6.52
O       4.51       3.48       8.09
O       2.72       5.85       7.43
Co       5.01       5.23       8.97
Co       8.39       3.83       7.75
O       8.03       3.54       9.59
O       6.58       5.23      10.11
O       4.82       6.65       7.65
O       2.08       4.11       9.79
O       3.72       5.55      10.40
O       6.53       4.02       7.43
C       1.99       2.73       4.90
C      -2.81       3.35       5.08
C      -0.92       4.46       8.15
C       0.97       0.97       8.34
C       2.61       4.94      10.59
C       7.41       4.32      10.41
C       5.53       3.21       7.34
C       3.63       6.70       7.16
O       0.10       4.19       7.41
O       1.88       1.82       8.06
O       8.75       4.13       5.90
O      -1.97       2.44       5.39
O      -0.21       1.02       7.85
O       2.53       3.56       5.70
O       0.88       2.12       5.10
O      -1.92       3.64       8.06
