512

H       0.05       0.73       3.94
H       0.05       0.74      31.53
H       0.64      34.16      34.92
H       0.64      34.15       0.55
H      30.74       4.02      34.92
H      30.74       4.02       0.55
H      15.69       0.73      13.18
H      15.69       0.73      22.29
H      16.28       4.02      18.90
H      16.29       4.02      16.56
H      15.10      34.15      18.90
H      15.10      34.15      16.56
H      23.51      14.46      26.91
H      23.51       5.35      26.91
H      24.17       8.73      30.19
H      24.14      11.07      30.19
H      22.86       8.73      23.64
H      22.89      11.07      23.63
H       7.87      23.72      26.91
H       7.87      32.83      26.91
H       8.52      29.45      23.64
H       8.50      27.11      23.63
H       7.22      29.45      30.19
H       7.24      27.11      30.20
H       7.87      23.72       8.56
H       7.87      32.83       8.56
H       7.22      29.45       5.28
H       7.24      27.11       5.27
H       8.52      29.45      11.83
H       8.50      27.11      11.84
H      23.51      14.46       8.55
H      23.51       5.35       8.55
H      22.86       8.73      11.83
H      22.88      11.07      11.84
H      24.17       8.73       5.28
H      24.14      11.07       5.27
H      15.69      19.09      22.29
H      15.69      19.09      13.18
H      16.38      15.82      16.56
H      16.38      15.82      18.91
H      15.00      22.36      16.56
H      15.00      22.36      18.90
H       0.05      19.09      31.53
H       0.05      19.09       3.93
H       0.73      22.36       0.55
H       0.73      22.36      34.92
H      30.65      15.82       0.55
H      30.65      15.82      34.92
H      29.95       5.40       4.45
H      25.17       5.12       3.85
H      26.59       3.74       2.56
H      29.83       6.89       6.23
H      28.37       6.72       7.21
H      28.50       8.01       6.00
H      28.76       3.14       1.89
H      26.18       7.53       6.24
H      14.30      32.77      12.66
H       9.52      33.06      13.25
H      10.94      34.44      14.55
H      14.18      31.29      10.88
H      12.73      31.46       9.90
H      12.85      30.16      11.12
H      13.11      35.04      15.22
H      10.53      30.65      10.87
H      22.13      14.98      22.24
H      17.34      14.39      22.52
H      18.76      13.10      23.90
H      22.02      16.76      20.76
H      20.56      17.74      20.92
H      20.69      16.53      19.63
H      20.92      12.43      24.51
H      18.37      16.78      20.11
H       6.48      23.21      31.58
H       1.70      23.78      31.30
H       3.11      25.08      29.92
H       6.37      21.43      33.07
H       4.92      20.44      32.91
H       5.04      21.66      34.20
H       5.28      25.75      29.31
H       2.72      21.40      33.71
H      17.08       5.41      12.66
H      21.86       5.12      13.25
H      20.44       3.74      14.55
H      17.20       6.89      10.88
H      18.66       6.72       9.90
H      18.53       8.02      11.12
H      18.27       3.14      15.22
H      20.85       7.53      10.87
H       1.44      32.77       4.45
H       6.22      33.06       3.85
H       4.80      34.44       2.56
H       1.56      31.29       6.23
H       3.01      31.46       7.21
H       2.89      30.16       5.99
H       2.62      35.03       1.89
H       5.21      30.65       6.23
H      24.90      14.97      31.58
H      29.69      14.40      31.30
H      28.27      13.10      29.92
H      25.01      16.75      33.07
H      26.46      17.74      32.91
H      26.34      16.52      34.20
H      26.10      12.43      29.31
H      28.66      16.78      33.71
H       9.26      23.21      22.24
H      14.04      23.78      22.52
H      12.63      25.08      23.90
H       9.37      21.43      20.75
H      10.82      20.44      20.92
H      10.70      21.66      19.63
H      10.46      25.75      24.51
H      13.01      21.40      20.11
H       1.44      32.77      31.02
H       6.22      33.06      31.61
H       4.79      34.44      32.91
H       1.56      31.29      29.23
H       3.01      31.46      28.26
H       2.89      30.16      29.47
H       2.62      35.03      33.57
H       5.20      30.65      29.23
H      17.08       5.41      22.80
H      21.86       5.12      22.21
H      20.44       3.74      20.92
H      17.20       6.89      24.59
H      18.65       6.72      25.57
H      18.53       8.02      24.35
H      18.27       3.14      20.25
H      20.85       7.53      24.59
H       9.25      23.21      13.22
H      14.04      23.78      12.95
H      12.62      25.08      11.57
H       9.36      21.42      14.71
H      10.82      20.44      14.55
H      10.70      21.66      15.84
H      10.46      25.75      10.95
H      13.01      21.40      15.35
H      24.90      14.97       3.88
H      29.68      14.39       4.16
H      28.27      13.10       5.55
H      25.01      16.75       2.40
H      26.46      17.74       2.56
H      26.34      16.52       1.27
H      26.10      12.43       6.16
H      28.66      16.78       1.76
H      14.30      32.77      22.80
H       9.52      33.06      22.21
H      10.94      34.44      20.92
H      14.18      31.29      24.58
H      12.73      31.45      25.56
H      12.85      30.16      24.34
H      13.11      35.04      20.25
H      10.53      30.65      24.59
H      29.95       5.41      31.02
H      25.16       5.12      31.61
H      26.59       3.74      32.90
H      29.83       6.89      29.24
H      28.37       6.72      28.26
H      28.50       8.02      29.47
H      28.76       3.14      33.57
H      26.18       7.53      29.23
H       6.48      23.21       3.89
H       1.70      23.78       4.16
H       3.11      25.08       5.55
H       6.37      21.42       2.40
H       4.92      20.44       2.56
H       5.04      21.66       1.27
H       5.28      25.75       6.16
H       2.72      21.40       1.76
H      22.13      14.97      13.23
H      17.34      14.39      12.95
H      18.76      13.10      11.56
H      22.02      16.75      14.71
H      20.56      17.74      14.55
H      20.68      16.52      15.84
H      20.92      12.43      10.95
H      18.37      16.78      15.35
C       0.05       0.73       0.09
C       0.34      36.25       0.81
C       0.43      36.27       2.23
C       0.05       0.73       2.91
C      30.95       1.91       2.23
C      31.04       1.93       0.81
C       0.52      35.05       0.08
C      30.86       3.12       0.08
C       0.05       0.73      35.37
C       0.34      36.25      34.65
C       0.43      36.27      33.23
C       0.05       0.74      32.56
C      30.95       1.91      33.24
C      31.04       1.93      34.66
C       0.52      35.05      35.39
C      30.86       3.13      35.39
C      30.41       2.98       3.01
C       0.97      35.19       3.00
C       0.97      35.20      32.46
C      30.41       2.99      32.46
C      15.69       0.73      17.02
C      15.99       1.93      16.30
C      16.07       1.91      14.88
C      15.69       0.73      14.20
C      15.31      36.27      14.88
C      15.39      36.25      16.30
C      16.16       3.12      17.03
C      15.22      35.05      17.03
C      15.69       0.73      18.45
C      15.99       1.93      19.17
C      16.07       1.91      20.59
C      15.69       0.73      21.27
C      15.31      36.27      20.59
C      15.39      36.25      19.17
C      16.16       3.12      18.43
C      15.22      35.05      18.43
C      14.77      35.20      14.10
C      16.62       2.98      14.11
C      16.62       2.98      21.36
C      14.77      35.19      21.36
C      23.51      10.62      26.91
C      23.82      11.34      28.11
C      23.90      12.76      28.09
C      23.51      13.44      26.91
C      23.13      12.76      25.74
C      23.20      11.34      25.72
C      24.01      10.60      29.30
C      23.01      10.60      24.53
C      23.51       9.19      26.91
C      23.85       8.47      28.10
C      23.96       7.05      28.06
C      23.51       6.37      26.91
C      23.06       7.05      25.76
C      23.18       8.47      25.73
C      24.03       9.20      29.29
C      23.00       9.20      24.53
C      22.58      13.53      24.67
C      24.44      13.53      29.16
C      24.62       6.29      29.09
C      22.41       6.30      24.73
C       7.87      27.56      26.91
C       8.18      26.84      25.72
C       8.26      25.42      25.74
C       7.87      24.74      26.91
C       7.48      25.42      28.09
C       7.56      26.84      28.11
C       8.37      27.58      24.53
C       7.37      27.58      29.30
C       7.87      28.99      26.91
C       8.20      29.71      25.73
C       8.32      31.13      25.76
C       7.87      31.81      26.91
C       7.42      31.13      28.06
C       7.54      29.71      28.10
C       8.38      28.98      24.53
C       7.35      28.98      29.29
C       6.94      24.65      29.16
C       8.80      24.65      24.67
C       8.97      31.88      24.73
C       6.77      31.88      29.09
C       7.87      27.56       8.56
C       7.56      26.84       7.36
C       7.48      25.42       7.38
C       7.87      24.74       8.56
C       8.26      25.42       9.73
C       8.18      26.84       9.75
C       7.37      27.58       6.17
C       8.37      27.58      10.94
C       7.87      28.99       8.56
C       7.54      29.71       7.37
C       7.42      31.13       7.40
C       7.87      31.81       8.56
C       8.32      31.13       9.71
C       8.20      29.71       9.74
C       7.36      28.98       6.17
C       8.38      28.98      10.94
C       8.80      24.65      10.80
C       6.94      24.65       6.31
C       6.77      31.88       6.38
C       8.97      31.88      10.73
C      23.51      10.62       8.55
C      23.20      11.33       9.75
C      23.12      12.76       9.73
C      23.51      13.44       8.55
C      23.90      12.76       7.38
C      23.82      11.34       7.36
C      23.01      10.60      10.94
C      24.01      10.60       6.17
C      23.51       9.19       8.55
C      23.18       8.47       9.74
C      23.06       7.05       9.70
C      23.51       6.37       8.55
C      23.96       7.05       7.40
C      23.85       8.47       7.37
C      23.00       9.20      10.93
C      24.03       9.20       6.17
C      24.45      13.53       6.31
C      22.58      13.53      10.80
C      22.41       6.29      10.73
C      24.62       6.30       6.37
C      15.69      19.09      18.45
C      16.04      17.91      19.17
C      16.15      17.94      20.58
C      15.69      19.09      21.26
C      15.23      20.24      20.58
C      15.35      20.27      19.16
C      16.23      16.71      18.43
C      15.15      21.46      18.43
C      15.69      19.09      17.02
C      16.04      17.91      16.30
C      16.15      17.94      14.88
C      15.69      19.09      14.20
C      15.23      20.24      14.88
C      15.34      20.27      16.30
C      16.23      16.71      17.03
C      15.15      21.46      17.03
C      14.58      21.26      21.34
C      16.80      16.92      21.34
C      16.80      16.92      14.12
C      14.58      21.26      14.12
C       0.05      19.09      35.37
C       0.39      20.27      34.66
C       0.50      20.24      33.24
C       0.05      19.09      32.56
C      30.88      17.94      33.24
C      30.99      17.91      34.66
C       0.59      21.46      35.39
C      30.79      16.71      35.39
C       0.05      19.09       0.09
C       0.39      20.27       0.81
C       0.50      20.24       2.23
C       0.05      19.09       2.91
C      30.88      17.94       2.23
C      30.99      17.91       0.81
C       0.59      21.46       0.08
C      30.79      16.71       0.08
C      30.23      16.91      32.48
C       1.15      21.27      32.48
C       1.16      21.26       2.99
C      30.22      16.92       2.99
C      28.41       4.37       3.44
C      28.94       5.29       4.37
C      28.10       6.08       5.20
C      26.68       5.98       5.07
C      26.17       5.16       4.04
C      27.01       4.36       3.26
C      28.74       6.97       6.21
C      12.77      33.81      13.67
C      13.29      32.88      12.74
C      12.46      32.09      11.91
C      11.04      32.20      12.04
C      10.52      33.02      13.07
C      11.37      33.82      13.85
C      13.09      31.20      10.90
C      20.59      13.97      23.28
C      21.12      14.90      22.35
C      20.29      15.73      21.56
C      18.87      15.61      21.66
C      18.35      14.58      22.48
C      19.19      13.79      23.28
C      20.93      16.74      20.67
C       4.94      24.21      30.54
C       5.47      23.28      31.47
C       4.64      22.45      32.26
C       3.22      22.57      32.16
C       2.70      23.60      31.34
C       3.54      24.39      30.53
C       5.28      21.44      33.16
C      18.61       4.37      13.67
C      18.09       5.30      12.74
C      18.93       6.09      11.91
C      20.34       5.98      12.04
C      20.86       5.16      13.07
C      20.02       4.36      13.85
C      18.29       6.98      10.90
C       2.97      33.81       3.44
C       2.45      32.88       4.37
C       3.28      32.09       5.20
C       4.70      32.20       5.07
C       5.22      33.02       4.04
C       4.37      33.82       3.26
C       2.65      31.20       6.21
C      26.44      13.97      30.55
C      25.91      14.90      31.47
C      26.74      15.73      32.26
C      28.16      15.61      32.16
C      28.68      14.58      31.34
C      27.84      13.79      30.54
C      26.10      16.74      33.16
C      10.79      24.21      23.28
C      10.27      23.28      22.35
C      11.10      22.45      21.56
C      12.52      22.57      21.66
C      13.04      23.60      22.48
C      12.20      24.39      23.29
C      10.45      21.44      20.67
C       2.97      33.81      32.03
C       2.45      32.88      31.09
C       3.28      32.09      30.27
C       4.70      32.20      30.40
C       5.21      33.02      31.42
C       4.37      33.82      32.21
C       2.64      31.20      29.25
C      18.61       4.37      21.80
C      18.09       5.30      22.73
C      18.92       6.09      23.56
C      20.34       5.98      23.43
C      20.86       5.16      22.40
C      20.01       4.36      21.61
C      18.29       6.97      24.57
C      10.79      24.21      12.19
C      10.27      23.28      13.12
C      11.10      22.45      13.91
C      12.51      22.57      13.81
C      13.03      23.60      12.98
C      12.20      24.39      12.18
C      10.45      21.44      14.80
C      26.44      13.97       4.92
C      25.91      14.90       3.99
C      26.74      15.73       3.20
C      28.16      15.60       3.30
C      28.68      14.58       4.13
C      27.84      13.79       4.93
C      26.10      16.74       2.31
C      12.77      33.81      21.80
C      13.29      32.88      22.73
C      12.46      32.09      23.55
C      11.04      32.20      23.43
C      10.52      33.03      22.40
C      11.37      33.82      21.61
C      13.09      31.20      24.56
C      28.41       4.37      32.03
C      28.94       5.30      31.09
C      28.10       6.09      30.27
C      26.68       5.98      30.40
C      26.17       5.16      31.42
C      27.01       4.36      32.21
C      28.74       6.98      29.25
C       4.94      24.21       4.92
C       5.47      23.28       4.00
C       4.64      22.45       3.20
C       3.22      22.57       3.31
C       2.70      23.60       4.13
C       3.54      24.38       4.93
C       5.28      21.44       2.31
C      20.59      13.97      12.19
C      21.11      14.90      13.12
C      20.28      15.73      13.91
C      18.87      15.60      13.81
C      18.35      14.58      12.98
C      19.19      13.79      12.18
C      20.93      16.74      14.80
N      29.19       3.51       2.69
N      25.83       6.70       5.89
N      13.55      34.67      14.42
N      10.18      31.48      11.22
N      21.36      13.22      24.14
N      18.02      16.43      20.95
N       5.72      24.96      29.69
N       2.37      21.75      32.88
N      17.84       3.51      14.43
N      21.20       6.70      11.22
N       2.19      34.66       2.68
N       5.56      31.48       5.88
N      25.67      13.22      29.69
N      29.01      16.43      32.87
N      10.02      24.96      24.14
N      13.37      21.75      20.95
N       2.19      34.66      32.78
N       5.55      31.48      29.58
N      17.84       3.51      21.04
N      21.20       6.70      24.24
N      10.02      24.96      11.33
N      13.36      21.75      14.52
N      25.67      13.22       5.78
N      29.01      16.42       2.59
N      13.55      34.66      21.04
N      10.18      31.48      24.24
N      29.19       3.51      32.78
N      25.83       6.70      29.58
N       5.72      24.96       5.78
N       2.37      21.75       2.59
N      21.36      13.22      11.33
N      18.02      16.42      14.52
O      30.96       3.20       4.22
O       0.43      34.97       4.22
O       0.43      34.97      31.24
O      30.96       3.21      31.24
O      15.31      34.97      12.89
O      16.07       3.21      12.89
O      16.07       3.20      22.58
O      15.32      34.97      22.58
O      23.14      14.75      24.44
O      23.89      14.74      29.39
O      24.19       5.03      29.30
O      22.83       5.03      24.52
O       7.49      23.43      29.39
O       8.25      23.43      24.44
O       8.54      33.15      24.52
O       7.19      33.15      29.31
O       8.24      23.43      11.03
O       7.49      23.43       6.08
O       7.19      33.15       6.16
O       8.54      33.15      10.95
O      23.89      14.75       6.08
O      23.13      14.74      11.03
O      22.84       5.03      10.95
O      24.19       5.03       6.16
O      15.01      21.48      22.61
O      16.37      16.70      22.61
O      16.37      16.69      12.86
O      15.01      21.48      12.86
O      30.66      16.69      31.21
O       0.72      21.48      31.21
O       0.72      21.48       4.25
O      30.66      16.70       4.25
