35

C       6.24      15.36       2.78
C       5.28      14.48       1.92
C       7.18      16.12       1.80
C       7.00      14.38       3.70
C       6.31      13.81       4.78
C       6.91      12.86       5.60
C       8.24      12.48       5.38
C       8.94      13.06       4.31
C       8.33      13.99       3.47
C       8.91      11.46       6.25
H       6.06      18.50       6.26
H       7.09      16.63       5.02
H       3.71      16.55       2.35
H       2.67      18.35       3.64
H       5.28      14.09       4.97
H       6.35      12.40       6.41
H       9.97      12.76       4.14
H       8.91      14.39       2.65
O       2.50      20.08       5.33
O       4.18      20.07       6.86
O       8.24      10.98       7.21
O      10.11      11.16       5.92
F       5.93      13.41       1.40
F       4.73      15.13       0.85
F       4.23      14.03       2.67
F       6.50      17.08       1.12
F       7.76      15.32       0.86
F       8.20      16.73       2.47
C       3.61      19.65       5.80
C       4.28      18.54       5.04
C       5.54      18.05       5.42
C       6.13      17.01       4.70
C       5.49      16.44       3.59
C       4.24      16.95       3.21
C       3.65      17.97       3.94
