400

C       0.14       0.65       0.67
C       0.19       0.36       2.06
C       0.01       1.33       3.07
C      15.37       2.69       2.72
C      15.46       3.05       1.34
C       0.05       2.04       0.36
C       0.22      15.18      30.75
C       0.32      13.79      31.05
C       0.45      12.78      30.07
C       0.54      13.13      28.70
C       0.34      14.49      28.34
C       0.17      15.46      29.35
C      15.18       0.24      16.21
C      15.46       0.18      17.61
C      14.49       0.39      18.62
C      13.14       0.62      18.26
C      12.78       0.53      16.89
C      13.79       0.36      15.91
C       0.65       0.13      15.20
C       2.04       0.07      15.51
C       3.06      15.45      14.53
C       2.71      15.31      13.17
C       1.35      15.48      12.80
C       0.37       0.13      13.80
C      14.80       1.06      24.02
C       0.21       0.02      22.09
C       1.01      14.78      22.94
C       0.00       0.23      24.87
C      15.45       0.30      26.27
C       0.28      15.47      20.69
C      14.82       1.00       8.46
C       0.32       0.03       6.54
C       1.09      14.76       7.40
C       0.08       0.23       9.32
C       0.00       0.34      10.72
C       0.45      15.53       5.14
C       0.12       8.47       1.42
C       0.11       6.52       0.02
C       0.26       7.35      30.00
C       0.27       9.30       0.29
C       0.33      10.70       0.39
C       0.04       5.12      31.02
C       7.36       0.37      16.97
C       9.31       0.34      15.57
C       8.48       0.14      14.45
C       6.53       0.17      15.85
C       5.13       0.10      15.96
C      10.71       0.39      15.46
C       4.14       4.65       0.67
C       4.19       4.36       2.06
C       4.01       5.33       3.07
C       3.82       6.69       2.72
C       3.91       7.05       1.34
C       4.05       6.04       0.36
C       4.22       3.62      30.75
C       4.32       2.23      31.05
C       4.45       1.22      30.07
C       4.54       1.58      28.70
C       4.34       2.94      28.34
C       4.17       3.91      29.35
C       3.63       4.24      16.21
C       3.91       4.18      17.61
C       2.94       4.39      18.62
C       1.59       4.62      18.26
C       1.23       4.53      16.89
C       2.24       4.36      15.91
C       4.65       4.13      15.20
C       6.04       4.07      15.51
C       7.06       3.90      14.53
C       6.71       3.75      13.17
C       5.35       3.93      12.80
C       4.37       4.13      13.80
C       3.25       5.06      24.02
C       4.21       4.02      22.09
C       5.01       3.23      22.94
C       4.00       4.23      24.87
C       3.90       4.30      26.27
C       4.28       3.92      20.69
C       3.27       5.00       8.46
C       4.32       4.03       6.54
C       5.09       3.21       7.40
C       4.08       4.23       9.32
C       4.00       4.34      10.72
C       4.45       3.97       5.14
C       4.12      12.47       1.42
C       4.11      10.52       0.02
C       4.26      11.35      30.00
C       4.27      13.30       0.29
C       4.33      14.70       0.39
C       4.04       9.12      31.02
C      11.36       4.37      16.97
C      13.31       4.34      15.57
C      12.48       4.14      14.45
C      10.53       4.17      15.85
C       9.13       4.10      15.96
C      14.71       4.39      15.46
C       8.14       8.65       0.67
C       8.19       8.36       2.06
C       8.01       9.33       3.07
C       7.82      10.69       2.72
C       7.91      11.05       1.34
C       8.05      10.04       0.36
C       8.22       7.62      30.75
C       8.32       6.23      31.05
C       8.45       5.22      30.07
C       8.54       5.58      28.70
C       8.34       6.94      28.34
C       8.17       7.91      29.35
C       7.63       8.24      16.21
C       7.91       8.18      17.61
C       6.94       8.39      18.62
C       5.59       8.62      18.26
C       5.23       8.53      16.89
C       6.24       8.36      15.91
C       8.65       8.13      15.20
C      10.04       8.07      15.51
C      11.06       7.90      14.53
C      10.71       7.75      13.17
C       9.35       7.93      12.80
C       8.37       8.13      13.80
C       7.25       9.06      24.02
C       8.21       8.02      22.09
C       9.01       7.23      22.94
C       8.00       8.23      24.87
C       7.90       8.30      26.27
C       8.28       7.92      20.69
C       7.27       9.00       8.46
C       8.32       8.03       6.54
C       9.09       7.21       7.40
C       8.08       8.23       9.32
C       8.00       8.34      10.72
C       8.45       7.97       5.14
C       8.12       0.92       1.42
C       8.11      14.52       0.02
C       8.26      15.35      30.00
C       8.27       1.75       0.29
C       8.33       3.15       0.39
C       8.04      13.12      31.02
C      15.36       8.37      16.97
C       1.76       8.34      15.57
C       0.92       8.14      14.45
C      14.53       8.17      15.85
C      13.13       8.10      15.96
C       3.16       8.39      15.46
C      12.14      12.65       0.67
C      12.19      12.36       2.06
C      12.01      13.33       3.07
C      11.82      14.69       2.72
C      11.91      15.05       1.34
C      12.05      14.04       0.36
C      12.22      11.62      30.75
C      12.32      10.23      31.05
C      12.45       9.22      30.07
C      12.54       9.58      28.70
C      12.34      10.94      28.34
C      12.17      11.91      29.35
C      11.63      12.24      16.21
C      11.91      12.18      17.61
C      10.94      12.39      18.62
C       9.59      12.62      18.26
C       9.23      12.53      16.89
C      10.24      12.36      15.91
C      12.65      12.13      15.20
C      14.04      12.07      15.51
C      15.06      11.90      14.53
C      14.71      11.75      13.17
C      13.35      11.93      12.80
C      12.37      12.13      13.80
C      11.25      13.06      24.02
C      12.21      12.02      22.09
C      13.01      11.23      22.94
C      12.00      12.23      24.87
C      11.90      12.30      26.27
C      12.28      11.92      20.69
C      11.27      13.00       8.46
C      12.32      12.03       6.54
C      13.09      11.21       7.40
C      12.08      12.23       9.32
C      12.00      12.34      10.72
C      12.45      11.97       5.14
C      12.12       4.92       1.42
C      12.11       2.97       0.02
C      12.26       3.80      30.00
C      12.27       5.75       0.29
C      12.33       7.15       0.39
C      12.04       1.57      31.02
C       3.81      12.37      16.97
C       5.76      12.34      15.57
C       4.92      12.14      14.45
C       2.97      12.17      15.85
C       1.58      12.10      15.96
C       7.16      12.39      15.46
H       0.31      14.96       2.39
H       0.04       0.86      29.02
H       0.87      11.24      27.96
H       0.79      12.39      26.79
H      15.03       4.58       3.45
H      15.10       3.43       4.62
H       0.11       2.36      30.51
H       0.27      13.46       0.90
H       0.86       0.01      17.94
H      14.97       0.22      13.46
H       4.60      14.95      12.45
H       3.45      14.98      11.28
H      11.26       1.03      18.98
H      12.41       0.93      20.15
H      13.47       0.32      14.95
H       2.36       0.18      16.46
H      14.13       1.74      24.39
H       1.66      14.08      22.57
H      14.90       1.04      26.71
H       1.00      14.89      20.25
H      14.15       1.68       8.83
H       1.78      14.11       7.03
H      14.81       0.90      11.15
H       1.01      14.79       4.70
H       0.05       8.86       2.36
H       0.32       6.97      29.05
H       0.25      11.15       1.31
H       0.13       4.67      30.11
H       6.98       0.46      17.91
H       8.86       0.05      13.51
H       4.68       0.21      16.87
H      11.16       0.28      14.55
H       4.31       3.41       2.39
H       4.04       4.86      29.02
H       4.87      15.24      27.96
H       4.79       0.84      26.79
H       3.47       8.58       3.45
H       3.55       7.43       4.62
H       4.11       6.36      30.51
H       4.27       1.91       0.90
H       4.86       4.01      17.94
H       3.42       4.22      13.46
H       8.60       3.40      12.45
H       7.45       3.42      11.28
H      15.26       5.03      18.98
H       0.86       4.93      20.15
H       1.92       4.32      14.95
H       6.36       4.18      16.46
H       2.57       5.74      24.39
H       5.66       2.53      22.57
H       3.35       5.04      26.71
H       5.00       3.33      20.25
H       2.60       5.68       8.83
H       5.78       2.56       7.03
H       3.26       4.90      11.15
H       5.01       3.24       4.70
H       4.05      12.86       2.36
H       4.32      10.97      29.05
H       4.25      15.15       1.31
H       4.13       8.67      30.11
H      10.98       4.46      17.91
H      12.86       4.05      13.51
H       8.68       4.21      16.87
H      15.16       4.28      14.55
H       8.31       7.41       2.39
H       8.04       8.86      29.02
H       8.87       3.69      27.96
H       8.79       4.84      26.79
H       7.47      12.58       3.45
H       7.55      11.43       4.62
H       8.11      10.36      30.51
H       8.27       5.91       0.90
H       8.86       8.01      17.94
H       7.42       8.22      13.46
H      12.60       7.40      12.45
H      11.45       7.42      11.28
H       3.71       9.03      18.98
H       4.86       8.93      20.15
H       5.92       8.32      14.95
H      10.36       8.18      16.46
H       6.57       9.74      24.39
H       9.66       6.53      22.57
H       7.35       9.04      26.71
H       9.00       7.33      20.25
H       6.60       9.68       8.83
H       9.78       6.56       7.03
H       7.26       8.90      11.15
H       9.01       7.24       4.70
H       8.05       1.30       2.36
H       8.32      14.97      29.05
H       8.25       3.60       1.31
H       8.13      12.67      30.11
H      14.98       8.46      17.91
H       1.31       8.05      13.51
H      12.68       8.21      16.87
H       3.60       8.28      14.55
H      12.31      11.41       2.39
H      12.04      12.86      29.02
H      12.87       7.69      27.96
H      12.79       8.84      26.79
H      11.47       1.03       3.45
H      11.55      15.43       4.62
H      12.11      14.36      30.51
H      12.27       9.91       0.90
H      12.86      12.01      17.94
H      11.42      12.22      13.46
H       1.05      11.40      12.45
H      15.45      11.42      11.28
H       7.71      13.03      18.98
H       8.86      12.93      20.15
H       9.92      12.32      14.95
H      14.36      12.18      16.46
H      10.57      13.74      24.39
H      13.66      10.53      22.57
H      11.35      13.04      26.71
H      13.00      11.33      20.25
H      10.60      13.68       8.83
H      13.78      10.56       7.03
H      11.26      12.90      11.15
H      13.01      11.24       4.70
H      12.05       5.30       2.36
H      12.32       3.42      29.05
H      12.25       7.60       1.31
H      12.13       1.12      30.11
H       3.42      12.46      17.91
H       5.31      12.05      13.51
H       1.13      12.21      16.87
H       7.60      12.28      14.55
N      15.17       3.65       3.67
N       0.72      12.17      27.74
N       0.29      14.79      27.02
N       0.44      11.46      30.38
N      15.48       4.37       1.03
N       0.05       1.03       4.39
N      12.19       0.85      19.21
N       3.67      15.08      12.22
N       1.05      15.50      11.47
N       4.38      15.49      14.85
N      11.46       0.52      16.58
N      14.79       0.34      19.94
N      14.91       0.90      22.67
N       0.85      14.89      24.28
N      15.00       0.90       7.12
N       0.97      14.92       8.74
N       0.04       7.13       1.24
N       0.34       8.70      30.17
N       8.70       0.44      16.79
N       7.13       0.07      14.63
N       3.62       7.65       3.67
N       4.72       0.62      27.74
N       4.29       3.24      27.02
N       4.44      15.46      30.38
N       3.93       8.37       1.03
N       4.05       5.03       4.39
N       0.63       4.85      19.21
N       7.67       3.53      12.22
N       5.05       3.95      11.47
N       8.38       3.94      14.85
N      15.46       4.52      16.58
N       3.24       4.34      19.94
N       3.36       4.90      22.67
N       4.85       3.34      24.28
N       3.45       4.90       7.12
N       4.97       3.37       8.74
N       4.04      11.13       1.24
N       4.34      12.70      30.17
N      12.70       4.44      16.79
N      11.13       4.07      14.63
N       7.62      11.65       3.67
N       8.72       4.62      27.74
N       8.29       7.24      27.02
N       8.44       3.90      30.38
N       7.93      12.37       1.03
N       8.05       9.03       4.39
N       4.63       8.85      19.21
N      11.67       7.53      12.22
N       9.05       7.95      11.47
N      12.38       7.94      14.85
N       3.91       8.52      16.58
N       7.24       8.34      19.94
N       7.36       8.90      22.67
N       8.85       7.34      24.28
N       7.45       8.90       7.12
N       8.97       7.37       8.74
N       8.04      15.13       1.24
N       8.34       1.14      30.17
N       1.15       8.44      16.79
N      15.13       8.07      14.63
N      11.62       0.10       3.67
N      12.72       8.62      27.74
N      12.29      11.24      27.02
N      12.44       7.90      30.38
N      11.93       0.82       1.03
N      12.05      13.03       4.39
N       8.63      12.85      19.21
N       0.12      11.53      12.22
N      13.05      11.95      11.47
N       0.82      11.94      14.85
N       7.91      12.52      16.58
N      11.24      12.34      19.94
N      11.36      12.90      22.67
N      12.85      11.34      24.28
N      11.45      12.90       7.12
N      12.97      11.37       8.74
N      12.04       3.58       1.24
N      12.34       5.14      30.17
N       5.15      12.44      16.79
N       3.58      12.07      14.63
