128

Cd       6.13       2.37      18.71
Cd       2.19       7.19      18.40
Cd       2.11       7.27       6.03
Cd       6.05       2.45       6.34
H       5.60       4.97      16.95
H       4.34       5.85      14.97
H       2.61       1.92      14.51
H       3.94       1.20      16.50
H       0.26       5.95       9.80
H       7.01       5.09       7.85
H       7.83       1.15       8.85
H       1.10       1.84      10.84
H       2.72       0.15      20.16
H       3.98       1.03      22.14
H       5.71       6.74      22.59
H       4.38       6.02      20.61
H       7.90       1.12       2.57
H       1.15       0.27       4.52
H       0.33       5.97       3.52
H       7.06       6.66       1.53
H       2.64       4.67       7.79
H       3.90       3.79       9.77
H       5.63       7.73      10.23
H       4.30       8.44       8.24
H       7.98       3.70      14.94
H       1.23       4.55      16.89
H       0.41       8.49      15.89
H       7.14       7.81      13.90
H       5.52       9.50       4.58
H       4.26       8.62       2.60
H       2.53       2.91       2.14
H       3.86       3.62       4.13
H       0.34       8.52      22.17
H       7.09       9.37      20.22
H       7.91       3.67      21.22
H       1.18       2.99      23.21
C       4.94       4.33      16.37
C       4.24       4.81      15.28
C       3.40       3.94      14.57
C       3.28       2.62      15.01
C       4.02       2.22      16.12
C       2.70       4.46      13.41
C       1.53       4.47      11.61
C       0.77       3.96      10.48
C       0.16       4.88       9.62
C       7.50       4.41       8.54
C       7.96       2.20       9.10
C       0.63       2.59      10.21
C       0.89       0.62      17.70
C       3.26       4.14      19.32
C       3.38       9.15      20.74
C       4.08       9.63      21.83
C       4.92       8.77      22.54
C       5.05       7.44      22.10
C       4.31       7.04      20.99
C       5.62       9.28      23.70
C       6.63       9.29       0.76
C       7.39       8.78       1.89
C       8.00       0.06       2.75
C       0.66       9.23       3.83
C       0.21       7.03       3.27
C       7.53       7.41       2.16
C       7.44       5.44      19.41
C       5.06       8.97      17.79
C       3.30       5.32       8.37
C       4.00       4.83       9.46
C       4.84       5.70      10.17
C       4.96       7.02       9.73
C       4.23       7.43       8.62
C       5.54       5.18      11.33
C       6.71       5.18      13.13
C       7.47       5.68      14.26
C       8.08       4.76      15.12
C       0.74       5.24      16.20
C       0.29       7.44      15.63
C       7.61       7.05      14.53
C       7.36       9.02       7.04
C       4.98       5.50       5.42
C       4.86       0.50       4.00
C       4.16       0.01       2.91
C       3.32       0.88       2.20
C       3.20       2.20       2.64
C       3.94       2.61       3.75
C       2.62       0.36       1.04
C       1.61       0.35      23.98
C       0.85       0.86      22.85
C       0.24       9.59      21.99
C       7.58       0.41      20.91
C       8.04       2.62      21.47
C       0.71       2.23      22.58
C       0.81       4.20       5.33
C       3.18       0.68       6.95
S       8.18       1.82      16.92
S       3.95       3.02      20.28
S       0.14       6.64      20.19
S       4.37       7.84      16.83
S       0.06       7.82       7.82
S       4.29       6.63       4.46
S       8.10       3.00       4.55
S       3.87       1.80       7.91
N       4.85       3.04      16.77
N       2.61       5.71      13.02
N       1.86       5.72      11.86
N       7.35       3.09       8.29
N       1.48       9.40      18.25
N       2.76       4.96      18.62
N       3.47       7.87      20.33
N       5.71       0.89      24.09
N       6.30       0.89       0.51
N       0.81       7.91       4.08
N       6.84       4.58      18.86
N       5.56       0.14      18.49
N       3.39       6.60       7.96
N       5.63       3.93      11.72
N       6.38       3.93      12.88
N       0.89       6.55      16.45
N       6.76       0.25       6.49
N       5.48       4.68       6.12
N       4.77       1.78       4.40
N       2.53       8.75       0.65
N       1.94       8.75      24.23
N       7.43       1.73      20.66
N       1.40       5.07       5.88
N       2.68       9.50       6.25
O       2.03       3.61      12.56
O       6.29       8.43      24.55
O       6.21       6.04      12.18
O       1.95       1.21       0.19
