22

C       2.41       6.13       6.71
C       6.75       5.87       6.72
C       4.40       2.24       6.70
C       2.40       6.16       2.76
C       6.77       5.91       2.74
C       4.38       2.22       2.72
Cr       2.81       3.78       4.71
Cr       4.55       6.74       4.73
Cr       6.23       3.75       4.71
O       3.25       2.43       6.22
O       2.25       5.01       6.13
O       3.17       7.03       6.25
O       5.89       6.61       6.13
O       7.17       4.79       6.23
O       5.45       2.63       6.10
O       3.24       2.44       3.19
O       2.24       5.02       3.32
O       3.17       7.04       3.22
O       5.89       6.62       3.32
O       7.16       4.81       3.20
O       5.45       2.64       3.30
O       4.53       4.76       4.72
