22

C       4.46       1.05      12.20
C       2.41      -2.97      12.20
C       6.86      -2.76      12.22
C       4.44       1.04      16.07
C       2.42      -2.93      16.11
C       6.84      -2.73      16.12
Cr       6.26      -0.55      14.15
Cr       2.85      -0.58      14.13
Cr       4.58      -3.54      14.16
O       7.21      -1.61      12.65
O       5.49       0.55      12.74
O       3.29       0.76      12.61
O       2.29      -1.82      12.73
O       3.21      -3.84      12.64
O       5.93      -3.43      12.76
O       7.20      -1.60      15.68
O       5.48       0.56      15.54
O       3.28       0.77      15.64
O       2.28      -1.81      15.54
O       3.20      -3.83      15.67
O       5.92      -3.42      15.57
O       4.57      -1.56      14.15
