13

Zn       6.39      10.20       9.92
C       3.61      10.09      10.36
Zn       5.36       8.59      12.03
O       6.44      10.08      12.90
O       7.06      11.45      11.19
C       7.52       8.02       9.54
O       4.55       9.89       9.49
O       3.73       9.83      11.59
O       7.07       8.04      10.74
O       7.36       9.00       8.72
C       6.99      11.12      12.45
O       5.12       7.25      13.48
C       4.31       6.52      12.76
