16

C       2.09      11.27       6.22
C       4.76      11.22       6.98
O       4.83       8.29       4.84
O       2.01      14.22       8.35
H       1.05      11.30       5.93
H       5.80      11.19       7.27
O       6.42       9.16       6.15
O       0.42      13.32       7.06
C       5.23       9.18       5.69
C       1.61      13.31       7.51
O       2.33       9.33       4.88
O       4.51      13.16       8.33
C       4.27      10.24       6.11
C       2.57      12.26       7.10
C       2.90      10.25       5.71
C       3.95      12.25       7.50
