86

H      10.03       6.77       4.93
H       8.06       7.50       6.63
H       3.38      10.07       5.97
H       2.57      11.95       4.20
H       4.65      14.08      -0.20
H       6.62      13.29      -1.90
H       9.59       8.87      -2.23
H      10.40       7.00      -0.46
H       7.22       9.18       2.82
H       6.57      10.62       1.41
H       6.90       9.43       7.83
H       6.06       8.43       9.93
H       3.00       6.34       7.72
H       3.81       7.40       5.64
H       2.03      12.28       0.83
H       0.14      13.87       1.20
H       2.64      16.22       3.81
H       4.53      14.61       3.45
H       7.29       9.88      -3.45
H       8.25      10.56      -5.64
H      10.67      13.53      -3.64
H       9.68      12.86      -1.47
H       9.32       5.05       3.05
H      11.19       3.39       3.21
H      13.88       6.26       1.48
H      12.03       7.95       1.41
C       8.83       7.90       3.42
C       9.15       7.36       4.71
C       8.15       7.73       5.58
C       7.20       8.53       4.86
C       5.95       8.99       5.29
C       5.13       9.87       4.56
C       3.86      10.38       5.06
C       3.46      11.34       4.17
C       4.49      11.38       3.14
C       4.45      12.30       2.08
C       5.33      12.31       1.00
C       5.34      13.24      -0.10
C       6.33      12.84      -0.95
C       6.95      11.67      -0.41
C       7.92      10.87      -1.01
C       8.45       9.69      -0.46
C       9.35       8.79      -1.18
C       9.76       7.86      -0.28
C       9.14       8.22       0.98
C       9.47       7.61       2.21
C       5.43       8.45       6.58
C       6.05       8.75       7.81
C       5.58       8.17       8.99
C       4.51       7.27       8.97
C       3.86       7.01       7.75
C       4.31       7.61       6.58
C       4.09       6.54      10.20
C       3.38      13.33       2.14
C       2.16      13.14       1.48
C       1.11      14.03       1.68
C       1.27      15.11       2.56
C       2.52      15.35       3.17
N       7.68       8.65       3.57
N       5.48      10.46       3.37
N       6.32      11.39       0.78
C       3.57      14.46       2.96
C       0.12      15.99       2.86
C       8.44      11.32      -2.33
C       8.02      10.68      -3.50
C       9.37      12.37      -2.39
C       8.55      11.06      -4.73
C      10.56       6.61       2.24
C      10.33       5.32       2.74
C      11.37       4.39       2.82
C      12.66       4.73       2.37
C      12.88       6.01       1.83
C      11.85       6.94       1.78
C      13.77       3.74       2.45
C      10.10      12.41      -6.08
O       3.43       5.41      10.06
O       4.33       6.97      11.36
O       0.24      16.90       3.79
O      -0.96      15.84       2.23
O      11.12      13.21      -6.14
O       9.61      11.90      -7.14
O      13.70       2.75       3.26
O      14.80       3.89       1.70
N       8.30       9.30       0.84
C       9.52      12.08      -4.78
C       9.92      12.74      -3.61
