86

C       0.22       2.27      26.76
C      -0.09       2.81      25.47
C       0.91       2.44      24.60
C       1.85       1.64      25.33
C       3.11       1.19      24.89
C       3.92       0.31      25.62
C       5.19      -0.21      25.12
C       5.59      -1.16      26.01
C       4.57      -1.20      27.04
C       4.61      -2.12      28.10
C       3.73      -2.14      29.18
C       3.72      -3.06      30.28
C       2.72      -2.67      31.14
C       2.11      -1.49      30.59
C       1.14      -0.69      31.19
C       0.60       0.49      30.64
C      -0.29       1.38      31.37
C      -0.70       2.32      30.47
C      -0.08       1.96      29.20
C      -0.42       2.56      27.97
C       3.62       1.72      23.60
C       3.00       1.43      22.37
C       3.48       2.00      21.19
C       4.54       2.91      21.21
C       5.20       3.16      22.43
C       4.74       2.56      23.61
C       4.97       3.63      19.98
C       5.67      -3.16      28.04
C       6.89      -2.97      28.71
C       7.95      -3.85      28.50
C       7.78      -4.94      27.62
C       6.54      -5.18      27.02
C       5.49      -4.29      27.23
C       8.94      -5.81      27.32
H      -0.98       3.40      25.25
C       1.03      -0.50      33.68
C       0.62      -1.14      32.51
H       1.00       2.68      23.55
H       4.40      -3.90      30.38
H       5.67       0.11      24.21
H       6.49      -1.78      25.98
H       2.43      -3.11      32.08
H      -0.54       1.30      32.42
C      -1.51       3.56      27.94
H      -1.35       3.17      30.64
H       1.84       0.99      27.36
H       2.49      -0.44      28.77
C      -0.31      -2.19      32.56
C      -1.28       4.86      27.44
C      -2.80       3.23      28.40
H       2.16       0.75      22.35
H       5.25       2.77      24.54
H       3.00       1.74      20.25
H       6.05       3.83      22.46
H       7.02      -2.10      29.36
H       4.53      -4.44      26.74
H       8.91      -3.70      28.98
H       6.41      -6.04      26.37
H       1.76       0.30      33.63
H      -0.62      -2.69      31.65
H      -0.27       5.13      27.13
H      -2.97       2.23      28.78
H       0.80      -0.39      35.82
H      -1.61      -3.36      33.81
H      -2.14       6.78      26.97
H      -4.83       3.92      28.70
C       0.50      -0.89      34.90
C      -0.46      -1.91      34.96
C      -0.87      -2.57      33.79
N       1.37       1.52      26.61
N       3.58      -0.28      26.82
N       2.73      -1.22      29.40
N       0.76       0.88      29.34
O      -5.75       6.29      28.48
C      -1.05      -2.25      36.27
C      -2.31       5.78      27.36
C      -3.60       5.45      27.81
C      -3.83       4.17      28.35
O       5.63       4.76      20.12
O       4.72       3.20      18.82
O       8.82      -6.73      26.40
O      10.02      -5.66      27.96
O      -2.06      -3.04      36.32
O      -0.56      -1.73      37.33
O      -4.64       7.43      26.92
C      -4.72       6.43      27.73
