28

C       0.55       4.76       6.07
H      -2.69       3.96       2.15
C      -2.80       6.28       0.77
H       3.37       2.95       5.41
O       2.63       3.44      10.18
C       1.64       4.03       9.62
H       3.40       2.88       7.93
O       0.68       4.60      10.23
C       1.66       4.27       3.85
C      -0.46       6.49       1.64
C       1.57       4.13       5.33
H      -0.20       5.21       8.05
C       0.62       6.00       2.37
O      -2.79       7.53       0.53
H      -0.23       5.30       5.55
C       2.59       3.43       6.00
C       0.49       4.80       3.08
O      -3.71       5.46       0.41
C       2.61       3.39       7.39
C      -0.72       4.08       3.03
H      -0.40       7.45       1.14
C       1.60       4.04       8.13
C      -1.65       5.75       1.54
O       2.71       4.01       3.25
H       1.56       6.55       2.40
C      -1.77       4.53       2.23
C       0.57       4.72       7.46
H      -0.82       3.15       3.60
