28

C      16.65       4.79      17.97
H      19.84       4.00      21.67
C      20.14       6.31      23.05
H      13.64       3.33      18.61
O      14.67       3.44      13.81
C      15.66       3.97      14.41
H      13.70       3.09      16.10
O      16.70       4.46      13.86
C      15.43       4.59      20.16
C      17.76       6.63      22.32
H      17.51       5.06      16.00
C      15.55       4.31      18.70
C      16.62       6.20      21.65
O      20.15       7.54      23.39
H      17.47       5.29      18.49
C      14.49       3.69      18.02
C      16.65       5.00      20.92
O      21.07       5.46      23.26
C      14.52       3.55      16.64
C      17.82       4.21      20.91
H      17.78       7.58      22.84
C      15.61       4.05      15.91
O      14.33       4.55      20.73
H      15.71       6.79      21.67
C      18.93       4.61      21.65
H      17.84       3.29      20.34
C      16.68       4.67      16.58
C      18.92       5.83      22.34
