28

C      11.54       2.43      12.70
H      11.31       4.72      14.11
C       8.12       3.91      17.93
C       7.06       4.78      21.46
O       6.05       5.33      22.01
H       5.19       5.50      17.23
C       6.94       4.19      15.72
C       9.21       2.09      13.54
H       5.20       5.74      19.75
O       8.08       4.30      22.06
C       8.09       2.53      14.25
O      11.55       1.19      12.36
H       8.92       3.61      19.92
C       7.05       4.44      17.18
C       8.15       3.73      14.97
O      12.45       3.27      12.43
C       6.01       5.11      17.84
H       8.92       3.37      17.43
C       9.32       4.50      14.95
H       9.21       1.13      13.03
C       6.01       5.24      19.22
O       5.86       4.31      15.14
H       7.17       1.93      14.26
C      10.41       4.11      14.16
C       7.07       4.69      19.97
H       9.37       5.43      15.52
C      10.36       2.89      13.47
C       8.12       4.03      19.32
