11

C       1.56      15.87       9.58
C       5.28      14.13      10.58
Zn       3.44      13.50       8.98
C       0.54      13.80       9.25
C       0.81      12.39       9.02
C       1.99      10.55       8.82
O       4.41      13.62       7.27
C       3.85      13.70       6.12
O       4.92      12.95      10.20
N       1.67      14.56       9.30
N       2.06      11.92       8.89
