466

Cu      -2.51       0.04      13.70
Cu      14.64      14.92      13.72
Cu       1.71      12.40      13.78
Cu      10.39      12.36      13.76
Cu      -2.48       4.92      14.06
Cu      13.09      19.77      11.59
Cu       4.25      12.72      11.91
Cu       7.21       0.04       7.15
Cu       7.27      14.92       7.12
Cu       2.99      12.40       7.07
Cu      11.52      12.36       7.08
Cu       7.18       4.92       6.79
Cu       8.82      19.77       9.26
Cu       0.45      12.72       8.93
Cu      15.81      19.77       7.15
Cu      -1.33       4.89       7.12
Cu      11.59       7.41       7.07
Cu       2.91       7.45       7.08
Cu      15.79      14.88       6.79
Cu       0.21       0.04       9.26
Cu       9.05       7.09       8.93
Cu       6.10      19.77      13.70
Cu       6.03       4.89      13.72
Cu      10.32       7.41      13.78
Cu       1.79       7.45      13.76
Cu       6.12      14.88      14.06
Cu       4.49       0.04      11.59
Cu      12.86       7.09      11.91
Cu      13.21      14.86      20.79
Cu      11.89      19.66      18.56
Cu      -1.10       0.18      16.13
Cu       8.71      14.86       0.06
Cu      10.02      19.66       2.29
Cu       5.80       0.18       4.71
Cu       0.10       4.95       0.06
Cu       1.41       0.14       2.29
Cu      14.40      19.62       4.71
Cu       4.60       4.95      20.79
Cu       3.29       0.14      18.56
Cu       7.51      19.62      16.13
Cu      12.91      12.21       0.00
Cu      12.91       7.25       0.00
Cu       4.30       7.60       0.00
Cu       4.30      12.55       0.00
Cu       0.00       0.00       0.00
Cu       8.61       0.00       0.00
H      12.68      16.75      12.11
H      10.69      15.29      12.54
H       8.42      16.37      12.71
H       8.24      18.84      12.45
H       8.28       1.12      12.38
H       8.55       3.59      12.54
H      10.85       4.58      12.31
H      12.79       3.03      11.96
H       5.19      15.43      10.65
H       7.39      16.38       9.99
H       9.40      14.83      10.01
H       9.11      12.49      10.75
H       8.74      10.58      11.37
H       8.19       8.36      12.34
H       5.88       7.95      13.21
H       4.20       9.80      13.07
H       9.23      16.75       8.73
H      11.22      15.29       8.30
H      13.49      16.37       8.14
H      13.67      18.84       8.40
H      13.63       1.12       8.47
H      13.36       3.59       8.31
H      11.07       4.58       8.53
H       9.12       3.03       8.88
H      -0.49      15.43      10.19
H      14.52      16.38      10.86
H      12.51      14.83      10.84
H      12.80      12.49      10.09
H      13.17      10.58       9.47
H      13.72       8.36       8.51
H      -1.18       7.95       7.63
H       0.50       9.80       7.78
H       0.63       3.06       8.73
H       2.62       4.52       8.30
H       4.88       3.43       8.14
H       5.06       0.97       8.40
H       5.03      18.68       8.47
H       4.75      16.21       8.31
H       2.46      15.22       8.53
H       0.51      16.78       8.88
H       8.12       4.38      10.19
H       5.91       3.43      10.86
H       3.90       4.98      10.84
H       4.19       7.32      10.09
H       4.56       9.23       9.47
H       5.11      11.44       8.51
H       7.43      11.86       7.63
H       9.11      10.01       7.78
H       4.07       3.06      12.11
H       2.08       4.52      12.54
H      -0.18       3.43      12.71
H      -0.36       0.97      12.45
H      -0.33      18.68      12.38
H      -0.05      16.21      12.54
H       2.24      15.22      12.31
H       4.18      16.78      11.96
H      13.79       4.38      10.65
H      -1.22       3.43       9.99
H       0.80       4.98      10.01
H       0.51       7.32      10.75
H       0.14       9.23      11.37
H      -0.41      11.44      12.34
H      14.49      11.86      13.21
H      12.80      10.01      13.07
H      11.50       2.95      18.79
H       9.54       4.46      19.11
H       7.27       3.43      19.46
H       7.06       0.95      19.44
H       7.04      18.70      19.44
H       7.18      16.22      19.49
H       9.43      15.12      19.18
H      11.43      16.58      18.83
H      -0.70      16.91      15.93
H       1.27      15.41      15.65
H       3.54      16.45      15.27
H       3.73      18.92      15.24
H       3.75       1.18      15.32
H       3.62       3.66      15.42
H       1.38       4.74      15.79
H      -0.63       3.28      16.01
H      10.41       2.95       2.05
H      12.37       4.46       1.73
H      14.64       3.43       1.39
H      14.85       0.95       1.41
H      14.87      18.70       1.40
H      14.73      16.22       1.36
H      12.48      15.12       1.67
H      10.48      16.58       2.01
H       5.40      16.91       4.91
H       3.42      15.41       5.20
H       1.16      16.45       5.57
H       0.97      18.92       5.60
H       0.95       1.18       5.53
H       1.08       3.66       5.42
H       3.32       4.74       5.05
H       5.33       3.28       4.83
H       1.80      16.86       2.05
H       3.77      15.35       1.73
H       6.04      16.38       1.39
H       6.24      18.85       1.41
H       6.27       1.11       1.40
H       6.12       3.59       1.36
H       3.87       4.68       1.67
H       1.87       3.23       2.01
H      14.01       2.90       4.91
H      12.03       4.40       5.20
H       9.77       3.35       5.57
H       9.58       0.88       5.60
H       9.55      18.63       5.53
H       9.68      16.15       5.42
H      11.93      15.06       5.05
H      13.94      16.53       4.83
H       2.90      16.86      18.79
H       0.93      15.35      19.11
H      -1.34      16.38      19.46
H      -1.55      18.85      19.44
H      -1.57       1.11      19.44
H      -1.42       3.59      19.49
H       0.82       4.68      19.18
H       2.82       3.23      18.83
H       7.90       2.90      15.93
H       9.88       4.40      15.65
H      12.14       3.35      15.27
H      12.33       0.88      15.24
H      12.36      18.63      15.32
H      12.23      16.15      15.42
H       9.98      15.06      15.79
H       7.97      16.53      16.01
C      -2.53       3.04      13.98
C      -2.49      18.02      13.81
C      13.02      13.98      13.70
C       0.19      13.51      13.70
C       1.84      10.51      13.69
C      -0.83       5.87      14.09
C      13.08       5.88      13.98
C      14.73      19.79      10.76
C      11.67      17.17      12.16
C      10.56      16.36      12.39
C       9.31      16.97      12.50
C       9.21      18.35      12.38
C      10.38      19.10      12.17
C      10.40       0.77      12.14
C       9.27       1.57      12.30
C       9.41       2.95      12.35
C      10.69       3.51      12.23
C      11.77       2.66      12.04
C       6.08      14.82      10.68
C       7.31      15.33      10.29
C       8.42      14.48      10.31
C       8.26      13.16      10.73
C       7.00      12.72      11.14
C       6.75      11.37      11.69
C       7.74      10.38      11.74
C       7.43       9.14      12.28
C       6.15       8.91      12.77
C       5.21       9.93      12.70
C       7.23       3.04       6.86
C       7.18      18.02       7.03
C       8.89      13.98       7.14
C       4.51      13.51       7.14
C       2.86      10.51       7.16
C       5.53       5.87       6.75
C       8.83       5.88       6.87
C       7.18      19.79      10.08
C      10.24      17.17       8.68
C      11.35      16.36       8.45
C      12.60      16.97       8.34
C      12.70      18.35       8.47
C      11.54      19.10       8.67
C      11.51       0.77       8.70
C      12.65       1.57       8.55
C      12.50       2.95       8.49
C      11.22       3.51       8.62
C      10.14       2.66       8.80
C      -1.39      14.82      10.16
C      14.60      15.33      10.56
C      13.49      14.48      10.54
C      13.65      13.16      10.12
C      14.91      12.72       9.70
C      15.16      11.37       9.16
C      14.17      10.38       9.11
C      14.48       9.14       8.57
C      -1.45       8.91       8.07
C      -0.51       9.93       8.15
C      15.83      16.77       6.86
C      15.79       1.79       7.03
C       0.28       5.83       7.14
C      13.12       6.30       7.14
C      11.47       9.29       7.16
C      14.14      13.93       6.75
C       0.22      13.93       6.87
C      -1.42       0.02      10.08
C       1.63       2.64       8.68
C       2.74       3.45       8.45
C       3.99       2.84       8.34
C       4.09       1.46       8.47
C       2.93       0.70       8.67
C       2.90      19.04       8.70
C       4.04      18.24       8.55
C       3.89      16.85       8.49
C       2.62      16.30       8.62
C       1.53      17.15       8.80
C       7.22       4.99      10.16
C       5.99       4.48      10.56
C       4.88       5.33      10.54
C       5.05       6.65      10.12
C       6.31       7.09       9.70
C       6.55       8.44       9.16
C       5.56       9.42       9.11
C       5.87      10.67       8.57
C       7.15      10.90       8.07
C       8.09       9.88       8.15
C       6.08      16.77      13.98
C       6.12       1.79      13.81
C       4.41       5.83      13.70
C       8.79       6.30      13.70
C      10.44       9.29      13.69
C       7.77      13.93      14.09
C       4.48      13.93      13.98
C       6.12       0.02      10.76
C       3.07       2.64      12.16
C       1.96       3.45      12.39
C       0.70       2.84      12.50
C       0.61       1.46      12.38
C       1.77       0.70      12.17
C       1.80      19.04      12.14
C       0.66      18.24      12.30
C       0.81      16.85      12.35
C       2.08      16.30      12.23
C       3.17      17.15      12.04
C      14.69       4.99      10.68
C      -1.29       4.48      10.29
C      -0.19       5.33      10.31
C      -0.35       6.65      10.73
C      -1.61       7.09      11.14
C      -1.85       8.44      11.69
C      -0.87       9.42      11.74
C      -1.17      10.67      12.28
C      14.76      10.90      12.77
C      13.82       9.88      12.70
C      11.57      13.95      20.83
C      13.29      17.96      20.82
C      -1.23      13.54      20.75
C      13.50      19.78      17.67
C      10.50       2.55      18.93
C       9.40       3.38      19.10
C       8.15       2.81      19.29
C       8.03       1.42      19.30
C       9.18       0.63      19.12
C       9.17      18.96      19.12
C       8.00      18.21      19.31
C       8.08      16.82      19.32
C       9.32      16.21      19.14
C      10.44      17.01      18.96
C       0.30      17.32      15.79
C       1.40      16.49      15.63
C       2.65      17.07      15.42
C       2.76      18.46      15.40
C       1.62       0.91      15.61
C       1.61      19.24      15.58
C       2.79       1.67      15.48
C       2.72       3.06      15.55
C       1.48       3.66      15.75
C       0.36       2.85      15.87
C      10.35      13.95       0.01
C       8.63      17.96       0.03
C       5.92      13.54       0.09
C       8.41      19.78       3.17
C      11.41       2.55       1.92
C      12.51       3.38       1.74
C      13.77       2.81       1.55
C      13.88       1.42       1.55
C      12.73       0.63       1.73
C      12.75      18.96       1.72
C      13.91      18.21       1.54
C      13.83      16.82       1.52
C      12.59      16.21       1.70
C      11.47      17.01       1.89
C       4.40      17.32       5.05
C       3.30      16.49       5.21
C       2.05      17.07       5.42
C       1.94      18.46       5.45
C       3.08       0.91       5.23
C       3.09      19.24       5.26
C       1.91       1.67       5.37
C       1.98       3.06       5.30
C       3.22       3.66       5.10
C       4.34       2.85       4.97
C       1.74       5.85       0.01
C       0.02       1.84       0.03
C      14.53       6.27       0.09
C      -0.20       0.03       3.17
C       2.80      17.26       1.92
C       3.90      16.42       1.74
C       5.16      17.00       1.55
C       5.27      18.39       1.55
C       4.12      19.17       1.73
C       4.14       0.85       1.72
C       5.30       1.60       1.54
C       5.23       2.99       1.52
C       3.99       3.60       1.70
C       2.87       2.79       1.89
C      13.01       2.49       5.05
C      11.90       3.32       5.21
C      10.65       2.74       5.42
C      10.55       1.35       5.45
C      11.68      18.90       5.23
C      11.70       0.57       5.26
C      10.51      18.14       5.37
C      10.58      16.75       5.30
C      11.82      16.15       5.10
C      12.95      16.96       4.97
C       2.96       5.85      20.83
C       4.68       1.84      20.82
C       7.38       6.27      20.75
C       4.90       0.03      17.67
C       1.89      17.26      18.93
C       0.79      16.42      19.10
C      -0.46      17.00      19.29
C      -0.57      18.39      19.30
C       0.57      19.17      19.12
C       0.56       0.85      19.12
C      -0.61       1.60      19.31
C      -0.53       2.99      19.32
C       0.71       3.60      19.14
C       1.83       2.79      18.96
C       8.90       2.49      15.79
C      10.01       3.32      15.63
C      11.26       2.74      15.42
C      11.36       1.35      15.40
C      10.23      18.90      15.61
C      10.21       0.57      15.58
C      11.40      18.14      15.48
C      11.33      16.75      15.55
C      10.09      16.15      15.75
C       8.96      16.96      15.87
C      12.91      10.33       0.00
C       4.30       9.47       0.00
N      11.64       1.32      12.00
N      11.59      18.50      12.05
N       5.92      13.55      11.10
N       5.50      11.13      12.16
N      -2.53       1.86      13.89
N      -2.48      16.84      13.83
N      -0.82      14.12      13.66
N      12.05       6.46      13.91
N       1.86       9.34      13.62
N      12.01      13.38      13.64
N       0.18       6.47      14.02
N       2.74      12.69      10.84
N      10.28       1.32       8.85
N      10.32      18.50       8.80
N      -1.23      13.55       9.74
N      -0.80      11.13       8.68
N       7.23       1.86       6.96
N       7.18      16.84       7.01
N       5.52      14.12       7.18
N       9.86       6.46       6.93
N       2.84       9.34       7.23
N       9.90      13.38       7.20
N       4.52       6.47       6.82
N       1.96      12.69      10.00
N       1.67      18.49       8.85
N       1.72       1.30       8.80
N       7.38       6.26       9.74
N       7.81       8.67       8.68
N      15.84      17.95       6.96
N      15.78       2.97       7.01
N      14.13       5.69       7.18
N       1.26      13.35       6.93
N      11.45      10.47       7.23
N       1.30       6.43       7.20
N      13.12      13.34       6.82
N      10.57       7.11      10.00
N       3.03      18.49      12.00
N       2.98       1.30      12.05
N      14.53       6.26      11.10
N      14.11       8.67      12.16
N       6.07      17.95      13.89
N       6.13       2.97      13.83
N       7.79       5.69      13.66
N       3.44      13.35      13.91
N      10.47      10.47      13.62
N       3.40       6.43      13.64
N       8.79      13.34      14.02
N      11.34       7.11      10.84
N      10.40       1.20      18.94
N      10.37      18.36      18.94
N       0.39      18.66      15.77
N       0.41       1.51      15.81
N      14.46      13.35       0.01
N      13.28      16.79      20.81
N      -2.23      14.16      20.73
N      -2.71       0.08      17.05
N      11.51       1.20       1.91
N      11.54      18.36       1.90
N       4.31      18.66       5.07
N       4.28       1.51       5.03
N       7.45      13.35      20.83
N       8.63      16.79       0.03
N       6.92      14.16       0.11
N       7.41       0.08       3.79
N       2.90      18.60       1.91
N       2.93       1.45       1.90
N      12.91       1.15       5.07
N      12.89      18.30       5.03
N      -1.16       6.46      20.83
N       0.02       3.02       0.03
N      15.53       5.65       0.11
N      16.01      19.72       3.79
N       1.79      18.60      18.94
N       1.77       1.45      18.94
N       9.00       1.15      15.77
N       9.02      18.30      15.81
N       5.86       6.46       0.01
N       4.68       3.02      20.81
N       6.38       5.65      20.73
N       5.90      19.72      17.05
N      12.91       9.16       0.00
N       4.30      10.65       0.00
