22

H       9.59      11.98       4.33
H      10.26       9.60       3.99
H      13.14       8.58       7.74
H      13.98       9.88       9.65
H      13.32      12.27       9.95
H      11.85      13.36       8.31
C      10.40      13.64       6.24
C      10.79      12.21       6.10
C      10.26      11.50       5.03
C      10.63      10.15       4.85
C      11.49       9.51       5.74
C      11.88       8.12       5.39
C      12.01      10.21       6.88
C      12.85       9.62       7.86
C      13.31      10.35       8.94
C      12.96      11.71       9.10
C      12.14      12.32       8.17
C      11.65      11.60       7.05
O      11.31      14.57       6.11
O       9.20      13.94       6.46
O      12.93       7.59       5.85
O      11.14       7.47       4.54
