22

C       6.69       1.69       6.23
C       7.03       0.24       6.32
C       7.78      -0.26       5.27
C       8.19      -1.60       5.22
C       7.82      -2.48       6.23
C       8.32      -3.88       6.10
C       7.02      -2.03       7.32
C       6.64      -2.92       8.37
C       5.89      -2.47       9.44
C       5.50      -1.11       9.51
C       5.87      -0.22       8.52
C       6.63      -0.64       7.39
H       8.04       0.42       4.46
H       8.80      -1.96       4.40
H       6.94      -3.96       8.32
H       5.59      -3.16      10.23
H       4.90      -0.77      10.35
H       5.58       0.82       8.57
O       7.16       2.36       5.23
O       5.93       2.28       7.09
O       7.48      -4.87       6.04
O       9.56      -4.07       5.98
