22

H      13.43       1.09       6.56
H      14.10      -1.30       6.90
H      16.98      -2.31       3.15
O      13.04       3.05       4.43
O      16.77      -3.30       5.05
O      14.98      -3.43       6.35
O      15.15       3.67       4.79
H      17.82      -1.01       1.24
H      17.16       1.38       0.94
H      15.68       2.47       2.59
C      14.24       2.75       4.66
C      14.62       1.32       4.80
C      14.10       0.60       5.86
C      14.46      -0.74       6.04
C      15.33      -1.38       5.16
C      15.72      -2.77       5.50
C      15.85      -0.68       4.01
C      16.68      -1.27       3.03
C      17.15      -0.54       1.96
C      16.80       0.82       1.80
C      15.98       1.43       2.72
C      15.49       0.71       3.85
