22

H       2.73       0.02       7.09
H       3.46      -2.34       6.90
H       5.80      -2.58       2.69
H       6.47      -0.94       0.99
O       3.64       3.04       4.91
O       2.08       2.17       6.24
H       4.37       2.16       3.09
O       4.14      -4.32       5.85
O       5.24      -4.12       3.94
H       5.69       1.44       1.17
C       3.07       2.00       5.47
C       3.58       0.62       5.22
C       3.29      -0.31       6.21
C       3.69      -1.64       6.09
C       4.36      -2.10       4.96
C       4.59      -3.56       4.89
C       4.73      -1.16       3.93
C       5.49      -1.54       2.79
C       5.85      -0.62       1.83
C       5.43       0.72       1.94
C       4.68       1.13       3.02
C       4.34       0.22       4.07
