22

O      22.81      15.81       7.86
O      21.23      17.12       8.72
O      23.30      16.74      15.22
O      24.38      14.82      15.02
C      22.24      16.37       8.90
C      22.75      16.12      10.28
C      22.45      17.11      11.21
C      22.84      16.99      12.54
C      23.51      15.85      12.99
C      23.75      15.78      14.46
C      23.89      14.82      12.06
C      24.65      13.68      12.44
C      25.01      12.72      11.52
C      24.60      12.83      10.18
C      23.85      13.92       9.77
C      23.50      14.96      10.68
H      21.89      17.98      10.88
H      22.61      17.79      13.24
H      24.96      13.59      13.48
H      25.63      11.88      11.84
H      24.86      12.07       9.46
H      23.54      13.99       8.74
