22

C      18.08       6.23      13.65
C      18.46       6.09      12.21
C      17.94       5.03      11.50
C      18.30       4.85      10.16
C      19.16       5.74       9.51
C      19.55       5.39       8.12
C      19.68       6.88      10.21
C      20.52       7.86       9.62
C      20.98       8.94      10.35
C      20.63       9.10      11.71
C      19.81       8.17      12.32
C      19.33       7.05      11.60
H      17.27       4.33      11.99
H      17.93       3.99       9.60
H      20.81       7.74       8.58
H      21.65       9.65       9.88
H      21.00       9.95      12.27
H      19.52       8.30      13.36
O      19.00       6.10      14.57
O      16.89       6.47      13.95
O      20.60       5.85       7.60
O      18.81       4.54       7.47
