22

O      18.98      15.68       7.22
O      16.87      15.33       7.84
O      20.59      15.93      14.20
O      18.81      17.25      14.32
H      17.93      17.79      12.19
C      18.07      15.55       8.15
C      18.45      15.69       9.58
C      17.93      16.76      10.29
C      18.29      16.93      11.64
C      19.15      16.05      12.28
C      19.54      16.39      13.67
C      19.67      14.91      11.58
C      20.51      13.92      12.17
C      20.97      12.85      11.44
C      20.62      12.69      10.08
H      17.25      17.46       9.81
C      19.32      14.74      10.19
H      20.79      14.04      13.21
H      21.64      12.13      11.91
H      21.00      11.84       9.52
H      19.52      13.49       8.43
C      19.81      13.62       9.47
