22

H      11.85      15.35      10.48
H      12.61      15.29      12.86
H      10.74      19.21      14.85
H       9.40      21.12      14.05
H       8.72      21.24      11.65
H       9.40      19.46      10.06
C      10.51      17.13       9.20
C      10.84      17.22      10.65
C      11.59      16.16      11.16
C      12.00      16.12      12.49
C      11.62      17.12      13.37
C      12.13      16.99      14.77
C      10.83      18.22      12.93
C      10.44      19.26      13.81
C       9.70      20.33      13.36
C       9.32      20.40      12.00
C       9.69      19.41      11.11
C      10.45      18.29      11.53
O      10.97      16.12       8.54
O       9.76      17.99       8.60
O      11.29      16.93      15.77
O      13.37      16.88      14.95
