22

C       6.58       4.66       2.75
C       6.96       4.80       1.32
C       6.43       5.86       0.60
C       6.79       6.04      -0.74
C       7.66       5.16      -1.38
C       8.05       5.51      -2.77
C       8.18       4.02      -0.68
C       9.01       3.03      -1.27
C       9.48       1.96      -0.54
C       9.12       1.80       0.82
C       8.30       2.72       1.43
C       7.82       3.85       0.70
H       5.76       6.56       1.09
H       6.43       6.90      -1.30
H       9.31       3.15      -2.31
H      10.16       1.24      -1.00
H       9.49       0.94       1.39
H       8.01       2.59       2.47
O       7.50       4.79       3.67
O       5.38       4.43       3.06
O       9.10       5.04      -3.30
O       7.32       6.37      -3.42
