22

H       9.58       9.79      17.46
H      10.25      12.18      17.80
H      13.12      13.20      14.05
H      13.97      11.91      12.14
H      13.33       9.51      11.84
H      11.85       8.42      13.49
O      11.32       7.22      15.68
O       9.21       7.84      15.33
O      12.91      14.19      15.93
O      11.12      14.31      17.25
C      10.40       8.14      15.55
C      10.79       9.57      15.69
C      10.26      10.28      16.76
C      10.62      11.62      16.94
C      11.48      12.27      16.05
C      11.86      13.66      16.40
C      12.00      11.57      14.91
C      12.83      12.17      13.92
C      13.30      11.43      12.85
C      12.95      10.08      12.69
C      12.14       9.46      13.62
C      11.65      10.18      14.74
