27

C       9.67      18.02       7.81
C       3.83      18.29      12.47
C       8.43      17.40       8.06
C       7.74      19.28       9.39
C       5.10      17.67      12.38
C       6.11      18.22      11.60
C       7.47      18.02       8.85
C       9.93      19.28       8.38
H       8.24      16.42       7.62
H       5.27      16.76      12.95
H       7.09      17.77      11.55
H       6.51      17.55       9.02
C       3.59      19.47      11.74
C       8.97      19.92       9.16
O       6.81      20.02      10.10
H       9.16      20.89       9.61
H      10.88      19.77       8.20
C       5.84      19.39      10.86
H       2.62      19.94      11.82
C       2.81      17.71      13.39
O       1.72      18.39      13.57
H       4.42      20.92      10.35
C       4.59      20.01      10.93
O      10.38      16.33       6.24
C      10.66      17.38       6.94
O      11.86      17.85       6.82
O       3.10      16.62      13.97
