27

C       6.80       2.14       0.73
C       4.84       0.91      -0.03
C       7.41       0.77       5.34
C       5.74       2.36       3.74
C       6.88       2.77      -0.51
C       4.92       1.56      -1.26
C       6.97       0.28       4.12
O       7.26       3.78       7.39
O       7.04       3.89      -3.08
O       5.00       3.02      -3.62
O       8.35       1.80       7.72
O       5.65       0.52       2.15
H       5.90       3.82       5.32
H       7.52       2.35       1.52
H       4.06       0.18       0.18
H       8.08       0.17       5.96
H       5.09       2.95       3.10
H       7.67       3.48      -0.72
H       4.19       1.35      -2.04
H       7.27      -0.70       3.76
C       5.93       2.50      -1.51
C       7.57       2.60       7.05
C       7.04       2.05       5.77
C       5.77       1.22       0.97
C       6.19       2.84       4.97
C       6.14       1.08       3.32
C       6.02       3.19      -2.82
