27

O      18.15       4.61      18.79
O      19.11      -1.62      18.02
O      16.19       3.78      19.62
O      15.04      -5.67      15.22
O      16.39      -7.11      16.19
C      17.80       2.26      18.79
H      20.46       0.52      17.54
H      15.95       1.38      19.45
H      15.76      -3.30      15.37
H      16.66      -0.96      18.92
H      17.10      -1.37      16.22
H      18.03      -6.00      17.84
C      16.82      -4.76      16.55
H      19.73       2.87      18.06
H      19.33      -4.04      18.76
C      19.48       0.73      17.95
C      16.93       1.18      19.02
C      16.55      -3.45      16.10
C      17.33      -0.12      18.74
C      18.29      -2.61      17.54
C      17.29      -2.38      16.58
C      18.61      -0.34      18.21
C      17.83      -4.98      17.50
C      19.07       2.02      18.25
C      18.55      -3.91      18.01
C      17.33       3.64      19.09
C      16.08      -5.89      15.99
