14

Co      -1.41      -0.10       3.89
Co      -4.67      -3.82       3.89
C      -3.14      -1.85       2.21
C      -3.97       1.09       2.65
C       0.33       1.65       5.57
C       1.16      -1.30       5.14
O      -2.17      -1.81       3.02
O      -4.04      -2.72       2.24
O      -3.19       0.86       3.60
O      -4.96       1.88       2.73
O      -0.64       1.61       4.76
O       1.23       2.52       5.55
O       0.38      -1.07       4.19
O       2.14      -2.08       5.06
