73

Ni       5.24       7.45       4.58
Ni       9.14       6.85       7.42
H       9.02       4.40       4.26
H       1.30       2.77       2.36
H       2.65       3.38       0.32
H       6.15       5.43       2.63
H       6.13       2.95       2.41
H       4.73       2.78       6.51
H       4.81       5.27       6.54
H       3.80       9.64       5.81
H       3.70      12.13       5.75
H       7.02       0.88       3.00
H       6.90       9.54       3.08
H       5.08       9.89       7.71
H       5.18      11.50       9.62
H       6.48      10.86      11.68
H      10.04       8.86       9.37
H      10.01      11.35       9.59
H       8.68      11.51       5.48
H       8.76       9.02       5.45
H       7.71       4.66       6.16
H       7.61       2.16       6.22
H       3.08      13.42       9.00
H       2.94       4.75       8.92
C       3.26       5.26       1.14
C       3.24       6.18       2.21
C       2.46       5.84       3.34
C       1.76       4.62       3.37
C       1.82       3.72       2.31
C       2.57       4.05       1.18
C       4.00       7.49       2.06
C       2.35       6.71       4.54
C       5.86       4.79       3.46
C       5.85       3.40       3.36
C       5.42       2.63       4.45
C       5.04       3.32       5.62
C       5.09       4.71       5.65
C       4.50      10.22       5.21
C       4.46      11.61       5.18
C       5.38       1.15       4.41
C       6.29      11.56       3.63
C       6.25      10.16       3.70
C       7.12       9.00      10.85
C       7.13       8.10       9.77
C       6.37       8.45       8.63
C       5.66       9.66       8.60
C       5.70      10.55       9.67
C       6.43      10.21      10.81
C       7.90       6.79       9.91
C       6.25       7.59       7.43
C       9.76       9.50       8.54
C       9.75      10.89       8.64
C       9.34      11.66       7.54
C       8.98      10.97       6.37
C       9.02       9.59       6.34
C       8.40       4.07       6.76
C       8.36       2.69       6.80
C       9.29       1.98       7.58
C      10.18       2.74       8.36
C      10.14       4.13       8.30
N       5.48       5.44       4.59
N       5.39       9.50       4.51
N       9.40       8.86       7.41
N       9.29       4.79       7.48
O       5.22       7.50       2.55
O       3.46       8.43       1.47
O       3.26       7.56       4.85
O       9.15       6.58       5.27
O       9.12       6.79       9.45
O       7.35       5.84      10.48
O       7.18       6.77       7.09
O       5.20       7.70       6.72
O       4.04       5.55       0.01
