42

H       9.40       9.43       2.81
H       9.47       9.88       1.11
H       2.97      11.25       4.50
H       3.08      10.20       0.84
C       7.59      13.89       5.50
H      10.83      11.43       2.56
H       9.56      12.30       1.71
C       7.67      12.09       3.80
C       6.94      12.96       4.63
C       5.51      12.94       4.64
C       9.18      12.08       3.82
C       9.09      13.99       5.49
C       4.85      13.80       5.57
C       9.71      13.47       4.19
C       3.35      13.78       5.66
C       2.72      13.38       4.32
H       1.66      11.58       2.42
H       2.98      12.52       1.71
N       5.55       9.54       1.21
N       6.94       9.50       1.26
N       6.91      14.67       6.33
N       5.52      14.61       6.38
H       2.98       9.52       2.43
H       3.06      13.07       6.44
H       2.99      14.76       5.99
H       9.49      11.38       4.63
H       9.38      15.04       5.68
H       9.48      13.44       6.36
H       1.63      13.31       4.45
H       2.90      14.17       3.58
H      10.80      13.45       4.30
H       9.48      14.16       3.36
C       4.87      10.38       1.99
C       5.52      11.25       2.92
C       4.79      12.08       3.79
C       6.95      11.23       2.94
C       7.61      10.31       2.08
C       9.11      10.22       2.10
C       3.28      12.05       3.80
C       3.37      10.39       1.88
C       9.74      11.55       2.50
C       2.75      11.69       2.40
