42

C      12.06      12.26      10.43
C      19.05      12.12      10.34
H      18.74      10.75      14.38
H      18.82       9.05      13.93
H      12.32      12.43      12.57
H      12.43       8.78      13.62
H      12.33      10.37      14.29
H      20.18      10.50      12.39
H      18.90       9.65      11.52
H      11.01      10.36      12.24
H      12.33       9.65      11.30
N      14.90       9.15      14.27
N      16.28       9.20      14.32
N      16.26      14.27       9.15
N      14.87      14.32       9.20
H      12.41      14.38      10.75
H      12.34      13.93       9.05
H      18.83      12.57      12.43
H      18.72      13.62       8.78
H      18.83      14.29      10.37
H      10.97      12.39      10.50
H      12.25      11.52       9.65
H      20.15      12.24      10.36
H      18.82      11.30       9.65
C      14.21       9.93      13.44
C      14.87      10.86      12.57
C      14.13      11.73      11.74
C      16.30      10.88      12.58
C      16.96      10.01      13.51
C      18.45      10.03      13.59
C      12.62      11.74      11.76
C      12.72       9.82      13.42
C      19.09      10.43      12.26
C      12.10      10.34      12.12
C      16.94      13.44       9.93
C      16.29      12.57      10.86
C      17.02      11.74      11.73
C      14.86      12.58      10.88
C      14.20      13.51      10.01
C      12.70      13.60      10.03
C      18.53      11.76      11.74
C      18.43      13.42       9.82
