33

C       9.65       5.42      16.88
C      13.94       2.36      15.36
C      13.22       0.45      14.45
C      14.48       0.73      14.00
H       8.31       1.84      17.98
H      11.74       3.77      16.18
H      11.41      -0.54      16.17
H       8.55      -0.31      19.51
H       9.23      -1.72      15.54
H       8.03      -3.72      17.08
H       8.53       3.73      19.46
H       8.97       7.44      17.51
H      10.15       5.49      15.93
H      13.99       3.25      15.98
H      12.52      -0.34      14.21
H      15.10       0.20      13.29
C       8.32      -2.71      17.34
N       8.10      -2.21      18.62
N       9.10      -0.65      17.42
N       9.48       4.21      17.55
N       8.49       5.76      18.77
N      12.88       1.49      15.32
N      14.92       1.92      14.57
C       9.99       2.93      17.16
C      11.19       2.86      16.43
C      11.67       1.61      16.04
C      10.99       0.44      16.39
C       9.79       0.54      17.09
C       8.57      -0.96      18.65
C       8.94      -1.75      16.58
C       9.28       1.78      17.48
C       8.77       4.46      18.70
C       9.03       6.37      17.65
