16

O      21.47      18.06      11.00
O      23.01      18.13       9.32
O      19.33      22.26      12.61
O      20.44      24.16      12.17
C      20.23      22.94      11.98
C      21.06      22.21      10.96
C      21.74      22.95       9.98
C      22.49      22.30       9.00
C      22.62      20.91       9.03
C      21.99      20.17      10.04
C      21.18      20.82      10.98
C      22.19      18.68      10.10
H      21.64      24.04      10.00
H      22.97      22.88       8.21
H      23.21      20.40       8.28
H      20.65      20.24      11.73
