33

C      17.90       5.19      20.63
C      19.14       5.63      21.11
C      20.24       5.66      20.24
C      20.10       5.21      18.92
C      18.86       4.72      18.49
C      17.74       4.73      19.32
C      15.69       4.39      21.57
C      14.86       4.91      22.53
C      16.57       6.27      22.39
C      17.56       3.98      16.50
C      19.78       3.94      16.28
C      19.20       3.50      15.13
C      22.68       6.10      20.03
C      23.08       7.05      21.97
C      21.75       6.74      21.95
H      19.24       5.93      22.15
H      20.94       5.25      18.24
H      16.75       4.44      18.97
H      15.61       3.52      20.94
H      13.92       4.53      22.89
H      17.18       7.16      22.48
H      16.57       4.17      16.90
H      20.82       4.08      16.54
H      19.65       3.19      14.20
H      22.81       5.68      19.03
H      23.66       7.53      22.75
H      20.98       6.91      22.68
N      17.82       3.53      15.28
N      18.73       4.25      17.16
N      21.49       6.14      20.71
N      23.64       6.64      20.76
N      16.78       5.26      21.50
N      15.42       6.08      23.02
