33

H       5.61       4.61       3.54
H       9.78       5.77       3.58
H       7.30       6.50       7.04
H       3.70       6.19       4.42
N       2.91       5.81       6.37
N       5.07       5.56       5.99
H       5.67       5.00       8.00
H       2.94       5.32       8.47
N       7.54       4.42      -0.08
N       7.87       4.67       2.09
H       6.14       5.52       1.12
H       9.73       3.57       2.25
H       9.30       3.24      -0.47
N       9.79       6.64       6.09
H      11.24       5.10       5.62
N      11.84       6.73       6.88
H       9.00       8.42       7.05
H      11.64       8.53       8.03
C       6.45       5.08       4.04
C       7.71       5.14       3.42
C       8.82       5.67       4.09
C       8.66       6.13       5.40
C       7.42       6.12       6.02
C       6.32       5.59       5.33
C       3.85       5.87       5.45
C       4.86       5.29       7.35
C       3.52       5.44       7.56
C      11.02       6.04       6.11
C       9.85       7.76       6.92
C      11.14       7.81       7.38
C       7.05       4.94       1.04
C       8.95       3.93       1.60
C       8.72       3.77       0.26
