16

O      19.27      17.31       4.14
O      20.17      19.37       4.47
H      17.31      17.31       2.77
H      19.57      20.94       2.49
O      14.48      18.40       0.24
O      15.24      16.82       1.67
H      16.08      20.34      -0.00
H      18.06      21.75       0.69
C      15.34      17.96       1.01
C      16.57      18.75       1.35
C      17.46      18.28       2.31
C      18.54      19.07       2.73
C      18.74      20.33       2.14
C      17.88      20.78       1.14
C      16.79      20.00       0.75
C      19.41      18.58       3.85
