16

O      15.89       6.84       0.34
O      16.08       5.70      -1.61
O      18.42       5.80       4.17
O      18.83       3.63       4.72
H      17.33       3.45      -1.26
H      18.64       1.80       0.09
C      16.31       5.84      -0.39
C      17.12       4.83       0.38
C      17.56       3.64      -0.21
C      18.30       2.72       0.55
C      18.60       2.98       1.89
C      18.19       4.19       2.47
C      17.45       5.10       1.71
H      19.16       2.28       2.49
H      17.13       6.03       2.17
C      18.51       4.52       3.90
