100

Cu       7.47       7.47       9.58
Cu       4.04       4.04       3.20
Cu       9.80       1.71       6.39
Cu       1.72       9.80      12.79
H       5.57       9.57       9.09
H       3.46      10.48      10.08
H       8.35       4.28      11.81
H       5.94       1.94       2.70
H       8.05       1.03       3.69
H       3.17       7.23       5.41
H       7.70      11.32       5.90
H       6.79       9.21       6.89
H       1.48       2.59       8.61
H       3.82       0.19      12.29
H       4.73       2.30       0.49
H      10.04       8.92       2.22
H      11.32       7.70       0.50
H       9.22       6.79      12.29
H       2.59       1.48      10.57
H       0.19       3.82       6.89
H       2.30       4.73       5.90
H       8.92      10.04       4.18
H       1.94       5.94       3.69
H       1.03       8.05       2.70
H       7.23       3.17       0.98
H       9.57       5.57      10.08
H      10.48       3.46       9.10
H       4.28       8.35       7.37
C       5.13       9.12       9.98
C       3.97       9.64      10.54
C       4.05       8.04      12.19
C       4.01       6.29       1.17
C       5.19       5.70       0.56
C       6.82       4.07       0.54
C       6.38       2.39       3.59
C       7.54       1.87       4.15
C       7.46       3.47       5.80
C       7.50       5.22       7.56
C       6.32       5.81       6.95
C       4.70       7.44       6.93
C       8.14      10.88       6.79
C       7.63       9.73       7.34
C       9.23       9.81       8.99
C      10.98       9.77      10.76
C       0.06      10.95      10.15
C       1.68       1.06      10.13
C       3.37       0.63       0.39
C       3.88       1.78       0.95
C       2.28       1.70       2.60
C       0.53       1.74       4.36
C      11.45       0.56       3.76
C       9.83      10.45       3.74
C      10.89       8.14      12.39
C       9.73       7.63      11.84
C       9.81       9.23      10.18
C       9.77      10.98       8.42
C      10.95       0.06       9.03
C       1.06       1.68       9.05
C       0.63       3.37       6.00
C       1.78       3.88       5.44
C       1.71       2.28       3.79
C       1.74       0.53       2.03
C       0.56      11.45       2.64
C      10.45       9.83       2.65
C       2.39       6.38       2.80
C       1.87       7.54       2.25
C       3.47       7.46       0.60
C       5.22       7.50      11.62
C       5.82       6.32      12.23
C       7.44       4.69      12.24
C       9.12       5.13       9.20
C       9.64       3.97       8.64
C       8.04       4.05       6.99
C       6.29       4.01       5.23
C       5.70       5.19       5.83
C       4.08       6.82       5.85
N       5.79       8.05      10.51
N       3.41       9.12      11.66
N       5.69       4.56       1.10
N       5.72       3.46       4.11
N       8.10       2.39       5.27
N       5.82       6.95       7.49
N       9.22       0.03       7.31
N       8.15       9.17       8.46
N       1.19      11.45      10.69
N       2.29      11.48       0.92
N       3.37       2.35       2.07
N      10.32       0.06       4.30
N       0.04       9.22      11.87
N       9.17       8.15      10.71
N      11.45       1.19       8.49
N      11.48       2.29       5.48
N       2.35       3.37       4.32
N       0.06      10.32       2.10
N       3.46       5.72       2.28
N       2.39       8.10       1.13
N       6.95       5.82      11.69
N       8.05       5.79       8.67
N       9.12       3.41       7.52
N       4.56       5.69       5.29
