27

S      12.12       5.02      12.21
O      15.45       9.36      11.56
O      15.66       9.62       9.35
O      13.13       4.23      12.91
O      11.13       5.77      12.97
H      14.02       7.42      12.24
H      14.42       7.97       7.98
H      12.85       6.06       7.56
H      11.30       4.20       7.53
H      10.35       2.52      12.16
H       9.85       2.20       7.90
O       9.23       0.43      11.38
O       8.71       0.42       9.21
C      15.20       8.97      10.35
C      14.30       7.81      10.13
C      13.76       7.12      11.23
C      13.97       7.42       8.81
C      12.90       6.06      10.98
C      13.10       6.36       8.58
C      12.55       5.67       9.67
C      11.64       4.50       9.65
C      11.34       4.03      10.94
C      11.10       3.84       8.54
C      10.57       2.90      11.16
C      10.30       2.72       8.74
C      10.06       2.23      10.04
C       9.28       0.98      10.22
