27

S      14.88      14.64       2.76
O      15.79      14.90       8.15
O      16.22      12.78       8.76
O      15.68      15.81       2.42
O      13.44      14.78       2.95
O      14.53      12.93      -2.49
O      14.91      10.72      -2.35
H      16.88      10.62       4.46
H      16.65      10.22       2.13
H      14.45      14.05      -0.23
H      16.06      10.06      -0.29
H      15.19      15.15       5.75
H      16.85      11.32       6.84
C      16.01      13.68       7.87
C      16.03      13.28       6.44
C      15.56      14.17       5.46
C      16.51      12.01       6.07
C      15.56      13.75       4.14
C      16.53      11.61       4.73
C      16.03      12.48       3.75
C      15.85      12.22       2.32
C      15.24      13.28       1.64
C      16.18      11.05       1.62
C      14.92      13.23       0.29
C      15.85      10.96       0.27
C      15.22      12.03      -0.39
C      14.86      11.89      -1.83
