120

V       6.28      11.11      11.14
V       4.92       3.71      22.44
V       2.66      11.11      11.45
V       1.30       3.70       0.15
H       0.58       5.48      18.41
H       3.38       9.34       7.11
H       3.10       1.99       4.31
H       0.86      12.83      15.61
H       5.92       9.86      19.73
H       5.27       4.96       8.43
H       4.53      12.28       2.63
H       6.67       2.54      13.93
H       1.12       5.23      16.42
H       2.84       9.59       5.13
H       3.07       2.27       6.36
H       0.89      12.55      17.66
H       1.66       4.97      14.11
H       2.30       9.85       2.81
H       3.08       2.54       8.74
H       0.87      12.28      20.04
C       4.22       9.28       9.64
C       6.97       5.54      20.93
C       0.66      12.95      12.96
C       3.30       1.87       1.66
C       4.28      12.94       9.63
C       6.92       1.88      20.93
C       0.60       9.30      12.98
C       3.36       5.52       1.68
C       6.34       8.91      19.41
C       4.86       5.91       8.11
C       4.29      13.26       3.04
C       6.91       1.56      14.33
C       7.00       6.65      19.97
C       4.20       8.17       8.67
C       3.39       0.76       2.62
C       0.57      14.06      13.92
C       1.10       6.96      13.55
C       2.87       7.86       2.25
C       3.56       0.50       9.17
C       0.40      14.32      20.47
C       1.26       5.92      14.45
C       2.70       8.90       3.15
C       3.31       1.57       8.33
C       0.65      13.25      19.62
C       0.93       6.08      15.79
C       3.03       8.74       4.49
C       3.30       1.40       6.95
C       0.65      13.42      18.24
C       0.39       7.30      16.28
C       3.57       7.52       4.98
C       3.60       0.14       6.36
C       0.36      14.68      17.66
C       0.21       8.37      15.34
C       3.75       6.45       4.04
C       4.23      13.86       7.24
C       6.97       0.96      18.53
C       7.28       7.47      17.66
C       3.92       7.35       6.36
C       3.94      14.76       4.94
C       0.02       0.05      16.24
C       6.73       8.72      18.07
C       4.47       6.10       6.77
C       4.26      13.48       4.42
C       6.94       1.34      15.72
C       6.55       9.75      17.15
C       4.65       5.07       5.85
C       4.57      12.43       5.29
C       6.63       2.39      16.59
C       6.91       9.59      15.81
C       4.29       5.23       4.51
C       4.55      12.61       6.67
C       6.65       2.21      17.97
C       0.18       6.45      18.64
C       3.78       8.37       7.34
C       3.33       0.98       4.00
C       0.63      13.83      15.30
C       6.46       7.89      20.34
C       4.74       6.93       9.04
C       4.04      14.30       2.14
C       7.16       0.52      13.44
C       0.58       8.20      13.97
C       3.38       6.62       2.67
C       4.19      14.05       8.65
C       7.01       0.77      19.95
O       3.12      12.52      10.11
O       0.84       2.30      21.41
O       6.67       9.71      12.49
O       4.53       5.11       1.19
O       5.44       9.72       9.95
O       5.76       5.10      21.25
O       1.88      12.51      12.64
O       2.08       2.31       1.35
O       5.50      12.51       9.95
O       5.69       2.31      21.25
O       1.82       9.72      12.64
O       2.14       5.10       1.35
O       6.74      12.52      12.49
O       4.46       2.30       1.19
O       3.05       9.71      10.11
O       0.91       5.11      21.41
O       4.29      11.11      12.13
O       6.91       3.71       0.83
O       0.67      11.11      10.47
O       3.29       3.70      21.77
F       6.03       8.10      21.61
F       5.16       6.72      10.31
F       4.12      14.06       0.81
F       7.07       0.76      12.11
F       6.00      10.94      17.53
F       5.20       3.88       6.23
F       4.92      11.21       4.80
F       6.28       3.61      16.10
F       1.46       6.77      12.26
F       2.50       8.05       0.96
F       3.51       0.70      10.52
F       0.45      14.12      21.81
F       6.70      10.65      14.99
F       4.50       4.17       3.69
F       4.88      11.54       7.44
F       6.32       3.28      18.74
