22

O       8.43      12.76       9.21
O       8.35      12.08       7.05
O      -0.71      10.72       6.92
O      -0.73      12.73       7.96
C       7.80      12.42       8.15
C       6.31      12.43       8.21
C       5.59      11.69       7.30
C       4.18      11.67       7.32
C       3.50      12.48       8.31
C       4.26      13.22       9.25
C       5.64      13.19       9.21
C       3.41      10.90       6.41
C       2.04      10.91       6.45
C       1.36      11.73       7.41
C       2.08      12.49       8.31
C      -0.12      11.73       7.45
H       6.12      11.08       6.56
H       3.75      13.82      10.00
H       6.23      13.75       9.93
H       3.93      10.28       5.68
H       1.45      10.31       5.76
H       1.55      13.07       9.06
