22

O      -1.40       7.84      19.48
O       0.70       7.51      18.68
O      -0.25      12.27      10.85
O      -2.30      12.58      11.64
C      -0.46       8.04      18.63
C      -0.76       8.94      17.48
C       0.20       9.15      16.50
C      -0.08       9.94      15.36
C      -1.37      10.54      15.23
C      -2.34      10.32      16.25
C      -2.04       9.54      17.34
C       0.88      10.13      14.32
C       0.57      10.88      13.21
C      -0.72      11.46      13.07
C      -1.66      11.31      14.07
C      -1.09      12.15      11.80
H       1.19       8.69      16.59
H      -3.33      10.77      16.15
H      -2.78       9.35      18.12
H       1.85       9.63      14.42
H       1.29      11.01      12.40
H      -2.65      11.75      13.96
