22

C       1.65       5.15      13.94
C       0.16       5.20      13.97
C      -0.56       4.47      13.03
C      -1.97       4.50      13.03
C      -2.65       5.28      14.03
C      -1.88       6.02      14.97
C      -0.51       5.99      14.93
C      -2.74       3.79      12.06
C      -4.11       3.83      12.09
C      -4.79       4.57      13.09
C      -4.07       5.28      14.04
C      -6.28       4.62      13.10
H      -0.03       3.89      12.28
H      -2.40       6.62      15.71
H       0.08       6.57      15.64
H      -2.22       3.21      11.30
H      -4.70       3.29      11.35
H      -4.60       5.88      14.78
O       2.28       6.09      14.52
O       2.19       4.14      13.36
O      -6.87       4.33      12.00
O      -6.88       4.89      14.20
