22

O      -0.12       9.51       0.08
O       1.89       9.18      -0.92
O      -1.11       3.64      -7.57
O      -3.17       4.29      -6.87
C       0.64       8.99      -0.81
C      -0.03       8.09      -1.81
C       0.71       7.45      -2.79
C       0.07       6.65      -3.77
C      -1.36       6.53      -3.76
C      -2.09       7.18      -2.73
C      -1.44       7.93      -1.77
C       0.81       5.97      -4.77
C       0.17       5.21      -5.72
C      -1.24       5.10      -5.73
C      -1.99       5.75      -4.76
C      -1.89       4.28      -6.80
H       1.79       7.58      -2.81
H      -3.18       7.07      -2.69
H      -1.98       8.42      -0.97
H       1.90       6.06      -4.77
H       0.71       4.68      -6.50
H      -3.08       5.66      -4.77
