20

Cu       8.81       0.91       6.68
Cu       7.03      -0.89       7.33
C       8.53      -1.34       4.90
C       6.12       1.29       5.71
C      11.58       1.84       5.71
C       7.32       1.35       9.11
C       9.73      -1.28       8.29
C       4.26      -1.82       8.29
N      10.41       3.65       5.90
N      10.39       2.29       6.07
N       5.44      -3.63       8.11
N       5.46      -2.27       7.94
O       7.59      -1.80       5.62
O       9.20      -0.27       5.09
O       7.30       1.75       5.67
O       5.72       0.23       6.30
O       8.26       1.81       8.39
O       6.64       0.29       8.92
O       8.54      -1.73       8.34
O      10.13      -0.22       7.70
