20

O       6.01       7.64       1.49
O       6.92       5.60       1.45
H       4.34       7.94       5.86
H       4.35       7.83       3.41
H       7.62       3.53       3.59
H       5.75       3.48       3.51
H       5.67       3.47       5.88
H       7.54       3.54       5.97
C       5.17       5.95       7.44
C       5.77       6.23       3.32
C       6.59       5.39       4.07
C       6.53       5.40       5.45
C       4.97       7.23       5.37
C       4.97       7.16       3.98
C       6.66       3.91       3.99
C       6.60       3.91       5.50
C       5.67       6.27       6.12
C       6.14       6.45       1.95
O       5.52       4.82       7.90
O       4.24       6.66       7.95
