22

O       3.74       0.45       1.53
O       0.80       3.59       5.68
O      -1.03       2.99       6.86
H       4.93       1.49       6.17
H       4.90       1.36       3.71
H      -0.41       0.23       3.86
H      -0.49       0.59       6.23
C       2.71       2.14       7.58
C       2.77       1.04       3.59
C       1.64       0.76       4.35
C       1.63       0.92       5.71
C       4.00       1.31       5.66
C       3.99       1.22       4.26
C       0.19       1.09       4.17
C       0.17       1.30       5.68
C       2.79       1.35       6.37
C       2.69       0.82       2.16
N      -0.07       2.69       6.02
Cl      -0.15       2.53       3.15
O       3.77       2.66       8.08
O       1.55       2.47       7.96
O       1.52       0.66       1.73
