128

Mg      10.27       6.58      11.31
Mg       6.84       6.12      12.88
Mg       8.53       0.24       4.16
Mg      11.95       0.70       5.73
Mg      -0.16       7.06       2.98
Mg       3.27       7.52       1.41
Mg       1.58      13.41      10.13
Mg      -1.84      12.94       8.56
H       5.41       9.66      10.88
H       6.30      12.61       8.51
H       9.16      10.04       9.57
H       6.31       2.59      10.71
H       7.55       0.11       7.98
H       9.50       3.56       8.52
H       9.76      10.80       3.73
H       8.86       7.86       1.36
H       6.00      10.42       2.43
H      12.49       4.23       3.57
H      11.25       6.71       0.84
H       9.30       3.26       1.37
H       4.70       3.98       3.41
H       3.81       1.03       5.78
H       0.95       3.60       4.72
H       3.80      11.05       3.58
H       2.56      13.53       6.30
H       0.61      10.08       5.77
H       0.35       2.84      10.56
H       1.25       5.79      12.93
H       4.11       3.22      11.86
H      -2.38       9.42      10.72
H      -1.14       6.93      13.45
H       0.81      10.38      12.92
C       7.72       8.37      11.08
C       7.34       9.62      10.34
C       6.04      10.12      10.38
C       6.57      11.86       8.99
C       7.89      11.46       8.90
C       8.87      12.28       8.11
C       8.28      10.33       9.60
C       8.08       4.53      10.58
C       7.93       3.28       9.75
C       6.92       2.37      10.04
C       7.64       0.92       8.43
C       8.66       1.79       8.04
C       9.61       1.38       6.95
C       8.81       2.97       8.73
C       7.44      12.09       3.94
C       7.83      10.84       3.19
C       9.12      10.34       3.23
C       8.60       8.60       1.84
C       7.27       9.00       1.75
C       6.29       8.18       0.96
C       6.89      10.13       2.45
C      10.72       2.29       3.44
C      10.87       3.54       2.61
C      11.88       4.45       2.90
C      11.16       5.90       1.29
C      10.14       5.04       0.90
C       9.19       5.44      14.10
C       9.99       3.85       1.59
C       2.39       5.27       3.21
C       2.78       4.02       3.95
C       4.07       3.52       3.91
C       3.54       1.78       5.30
C       2.22       2.18       5.39
C       1.24       1.36       6.18
C       1.83       3.31       4.69
C       2.03       9.11       3.71
C       2.18      10.36       4.54
C       3.19      11.27       4.25
C       2.47      12.72       5.86
C       1.45      11.86       6.25
C       0.50      12.26       7.34
C       1.30      10.67       5.55
C       2.67       1.55      10.35
C       2.28       2.80      11.10
C       0.99       3.30      11.06
C       1.51       5.04      12.44
C       2.84       4.64      12.53
C       3.82       5.46      13.33
C       3.22       3.51      11.84
C      -0.61      11.35      10.85
C      -0.76      10.10      11.68
C      -1.77       9.20      11.39
C      -1.05       7.74      13.00
C      -0.03       8.61      13.39
C       0.92       8.20       0.19
C       0.12       9.80      12.70
N       5.65      11.22       9.73
N       6.77       1.20       9.42
N       9.51       9.24       2.59
N      12.03       5.62       2.27
N       4.46       2.42       4.56
N       3.34      12.45       4.87
N       0.60       4.40      11.70
N      -1.91       8.02      12.02
O       8.95       8.12      11.14
O       6.80       7.68      11.58
O       8.40      13.01       7.23
O      10.07      12.17       8.41
O       7.18       4.76      11.41
O       9.10       5.21      10.38
O       9.23       0.58       6.08
O      10.78       1.83       7.01
O       6.22      12.34       3.99
O       8.36      12.78       4.43
O       6.77       7.45       0.09
O       5.09       8.30       1.27
O      11.62       2.06       4.27
O       9.70       1.61       3.23
O       9.57       6.24      13.22
O       8.02       4.99      14.16
O       1.16       5.52       3.15
O       3.31       5.96       2.71
O       1.71       0.63       7.06
O       0.04       1.47       5.88
O       2.94       8.88       2.88
O       1.01       8.43       3.91
O       0.88      13.07       8.21
O      -0.67      11.81       7.28
O       3.89       1.30      10.30
O       1.75       0.86       9.85
O       3.34       6.19      14.20
O       5.02       5.35      13.02
O      -1.51      11.58      10.02
O       0.41      12.04      11.06
O       0.54       7.40       1.07
O       2.09       8.65       0.13
