18

C      11.35       2.88       4.55
C      12.49       2.04       4.74
C      13.04       1.42       3.60
C      12.39       1.47       2.36
H       9.75       3.52       3.23
O      11.03       2.42      -0.32
O      10.02       0.43       0.74
O       8.91       2.65       0.95
O       9.71       4.66       5.57
O      12.06       4.53       6.45
O      10.35       2.81       6.98
O      12.86       0.82       1.30
O      12.98       1.87       5.97
H      13.95       0.83       3.69
S      10.16       1.91       0.85
S      10.87       3.81       5.93
C      11.14       2.18       2.27
C      10.66       2.93       3.34
