18

C       1.31      11.40      15.67
C       1.80      10.65      14.61
C       1.11      10.69      13.40
C      -0.03      11.54      13.21
C      -0.58      12.16      14.34
C       0.07      12.10      15.59
O       1.43      11.16      18.27
O       2.44      13.15      17.21
O       3.54      10.92      17.00
O       2.75       8.92      12.38
O       0.40       9.05      11.50
O       2.11      10.76      10.97
H       2.71      10.06      14.72
H      -1.49      12.75      14.25
S       2.30      11.67      17.10
S       1.59       9.76      12.01
O      -0.40      12.75      16.65
O      -0.52      11.70      11.98
