138

Co      14.62       6.13       2.06
Co      12.16       7.03       4.17
Co      11.07      -4.09       9.24
Co      11.53      -6.67      11.35
Co      21.70      -2.05      -5.12
Co      23.70      -0.37      -3.01
Co      16.98      -6.13      12.82
Co      19.42      -7.05      -6.60
Co      20.52       4.08      -1.51
Co      20.08       6.67       0.59
Co       9.90       2.05       5.67
Co       7.89       0.37       7.77
C      12.84       7.99       7.05
C      14.13       6.06       6.18
C      14.29       5.22       4.91
C      11.81       5.77       6.86
C      11.29       4.78       5.82
C       8.76      -5.76      10.24
C      19.81      -6.60      -9.60
C      13.36       3.51       1.77
C      15.63       3.32       1.36
C      19.35       9.47       1.24
C      21.65       9.17       1.18
C      10.37      -6.55      14.23
C      11.41      -4.47      13.36
C      12.04      -3.91      12.07
C      12.82      -6.34      14.01
C      13.92      -6.29      12.96
C      24.29      -3.22      -4.11
C      19.49       6.78      -2.41
C      13.98      -3.87       8.94
C      13.00      -1.81       8.53
C       5.82      -1.66       8.41
C       4.93       0.49       8.35
C      24.19      -1.43      -0.12
C      21.88      -1.58      -1.00
C      21.07      -1.31      -2.28
C      22.78       0.58      -0.32
C      22.19       1.51      -1.37
C      14.33       8.96       3.05
C       8.09      -0.20       4.77
C      20.06       0.36      -5.41
C      18.76      -1.51      -5.82
C      22.22      -7.82      -5.94
C      20.80      -9.66      -5.99
C      18.75      -7.98      -3.71
C      17.47      -6.05      -4.58
C      17.30      -5.22      -5.86
C      19.80      -5.76      -3.93
C      20.31      -4.79      -4.99
C      22.83       5.75      -0.52
C      11.78       6.58       1.16
C      18.24      -3.51      12.53
C      15.97      -3.32      12.12
C      12.25      -9.48      12.00
C       9.95      -9.17      11.94
C      21.23       6.56       3.47
C      20.20       4.48       2.61
C      19.56       3.92       1.34
C      18.79       6.35       3.26
C      17.68       6.30       2.20
C       7.31       3.22       6.65
C      12.11      -6.78       8.35
C      17.61       3.87      -1.81
C      18.59       1.81      -2.22
C      25.77       1.66      -2.35
C      26.66      -0.49      -2.41
C       7.41       1.44      10.64
C       9.73       1.58       9.78
C      10.53       1.31       8.50
C       8.81      -0.58      10.44
C       9.41      -1.51       9.39
C      17.25      -8.96      -7.68
C      23.50       0.18      -6.02
C      11.54      -0.36       5.36
C      12.84       1.51       4.95
C       9.37       7.81       4.82
C      10.79       9.65       4.76
N      12.79       6.71       6.29
N      14.56       4.11       1.62
N      20.41       8.63       1.12
N      11.51      -5.95      13.45
N      12.86      -3.12       8.79
N       6.02      -0.32       8.29
N      23.11      -0.75      -0.89
N      19.97      -0.98      -5.56
N      20.96      -8.31      -6.06
N      18.80      -6.71      -4.48
N      17.03      -4.11      12.37
N      11.19      -8.64      11.88
N      20.10       5.96       2.70
N      18.74       3.12      -1.96
N      25.57       0.32      -2.48
N       8.50       0.75       9.88
N      11.63       0.98       5.22
N      10.63       8.30       4.70
O      13.76       5.81       3.84
O      11.15       5.19       4.62
O      11.01       3.62       6.26
O       9.28      -4.95       9.41
O       9.37      -6.39      11.17
O      20.24      -7.02      -8.48
O      18.60      -6.33      11.63
O      11.78      -4.68      11.02
O      13.63      -6.61      11.77
O      15.07      -5.95      13.39
O      23.35      -3.15      -4.97
O      24.51      -2.39      -3.16
O      19.63       7.36      -1.29
O      19.88       5.59      -2.70
O      21.85      -1.14      -3.34
O      22.61       1.42      -2.57
O      21.32       2.34      -0.94
O      14.77       8.11       2.22
O      13.47       8.75       3.98
O       7.54      -0.40       5.90
O       8.91       0.73       4.48
O      17.83      -5.81      -6.92
O      20.43      -5.20      -6.19
O      20.59      -3.62      -4.57
O      22.30       4.95      -1.35
O      22.23       6.38       0.42
O      11.33       6.96       2.29
O      13.00       6.34       0.87
O      19.81       4.66       0.27
O      17.97       6.61       1.01
O      16.54       5.95       2.63
O       8.25       3.15       5.79
O       7.09       2.39       7.60
O      12.00      -7.35       9.48
O      11.71      -5.60       8.06
O       9.75       1.15       7.44
O       8.99      -1.42       8.20
O      10.28      -2.33       9.82
O      16.85      -8.11      12.98
O      18.07      -8.74      -6.72
O      24.06       0.35      -4.89
O      22.67      -0.74      -6.32
