29

C       8.65      -3.49      10.01
N      11.61      -6.28      10.86
N       5.91      -2.91      12.83
N       5.90      -9.65       8.94
O       9.57      -4.30      10.29
O       7.43      -3.52      10.42
O       7.60      -9.17      11.23
O       9.69      -8.30      11.49
O       7.48      -6.42      11.12
O       7.59      -5.14      13.55
O       4.80      -5.29      11.45
O       9.70      -5.80      12.94
C       8.81      -9.18      11.69
O       4.81      -7.26      10.29
O       9.58      -6.74       8.87
O       7.45      -7.30       8.26
C       4.77      -2.30      12.43
C       6.66      -2.29      13.77
C       4.24      -6.28      10.87
C       8.80      -5.53      13.80
C      12.31      -7.29      10.29
C      12.30      -5.28      11.45
C       8.66      -6.93       8.02
C       4.76      -9.61       8.21
C       6.65     -10.77       8.87
Co       6.65      -4.61      11.87
Co       9.51      -6.29      10.90
Co       6.65      -7.98       9.94
H       7.43      -6.90      11.96
