102

Mg       0.79       4.53       1.74
Mg       5.71       0.02       5.98
Mg       9.03       4.56      13.69
Mg       4.12       9.07       9.46
Mg       0.00       7.54       0.00
Mg       4.91      -2.99       7.72
H       7.22      -0.17      13.12
H       6.10      -1.11      11.29
H       6.76      -4.78      12.81
H       7.94      -3.83      14.59
H       4.96       6.83       2.23
H       3.01       1.15      14.10
H       2.31      -1.27      10.03
H       1.19      -0.34      11.86
H       1.85       3.34      10.35
H       3.03       2.39       8.56
H       0.05      12.79       5.49
H       7.92      -2.59       9.05
H       2.60       9.26       2.31
H       3.72      10.20       4.14
H       3.06      13.87       2.63
H       1.88      12.92       0.84
H       4.86       2.25      13.21
H       6.81       7.94       1.33
H       7.51      10.36       5.40
H       8.63       9.42       3.57
H       7.97       5.75       5.09
H       6.79       6.70       6.87
H       9.77      -3.70       9.94
H       1.90      11.68       6.39
C       8.51      -1.26      15.14
C       7.69      -1.91      14.02
C       7.14      -1.12      13.05
C       6.45      -1.68      11.97
C       6.29      -3.04      11.87
C       6.85      -3.84      12.86
C       7.56      -3.27      13.93
C       5.57      -3.63      10.66
C       2.59       6.18       1.14
C       3.79       6.90       0.56
C       4.94       7.13       1.32
C       3.77       1.31      14.64
C       3.60      -0.18       8.01
C       2.78       0.47       9.13
C       2.23      -0.33      10.10
C       1.54       0.23      11.18
C       1.38       1.60      11.28
C       1.94       2.39      10.29
C       2.64       1.83       9.22
C       0.66       2.19      12.49
C       7.50      -1.64       6.58
C       8.70      -2.36       7.15
C       0.02      12.49       6.39
C       8.68      -2.76       8.51
C       1.32      10.35       0.30
C       2.13      11.00       1.42
C       2.68      10.20       2.38
C       3.37      10.76       3.47
C       3.53      12.13       3.56
C       2.97      12.93       2.58
C       2.27      12.36       1.51
C       4.25      12.72       4.77
C       7.23       2.91      14.29
C       6.03       2.18      14.87
C       4.89       1.96      14.11
C       6.05       7.77       0.79
C       6.23       9.27       7.42
C       7.04       8.62       6.30
C       7.59       9.42       5.34
C       8.28       8.86       4.25
C       8.44       7.49       4.15
C       7.88       6.69       5.14
C       7.18       7.26       6.21
C       9.16       6.90       2.95
C       2.32      10.72       8.86
C       1.12      11.45       8.28
C       9.80      -3.41       9.04
C       1.14      11.85       6.93
O       9.10       3.95       0.51
O       8.54      -0.03      15.16
O       5.39      -2.85       9.70
O       5.23      10.23      10.72
O       2.71       5.53       2.22
O       1.51       6.14       0.49
O       4.19       0.60       7.21
O       3.63      -1.42       7.99
O       0.48       1.40      13.45
O       0.32       3.40      12.43
O       7.62      -0.98       5.50
O       6.42      -1.60       7.23
O       0.72       5.14      14.92
O       1.28       9.11       0.28
O       4.43      11.93       5.74
O       4.59      -1.15       4.71
O       7.12       3.56      13.21
O       8.31       2.94      14.94
O       5.63       8.49       8.23
O       6.19      10.51       7.44
O       9.34       7.69       1.98
O       9.50       5.69       3.00
O       2.20      10.07       9.94
O       3.40      10.69       8.21
