16

N       1.69      13.19      10.40
C       3.61      11.38      12.91
C       5.22      11.58      11.45
C       0.53      12.72      10.85
Zn       3.35      14.07      11.63
C       1.71      12.93       9.04
N       3.79      15.32      10.11
N       2.04      14.63      13.06
N       4.10      12.20      11.96
C       5.69      14.25      13.80
C       5.41      16.23      12.94
C       2.90      15.94       9.31
C       5.05      15.72       9.71
N       5.08      14.89      12.80
C       0.82      15.19      12.85
C       2.13      14.39      14.41
