13

N       9.41       2.27      15.47
N       6.41       1.76      14.34
C       5.91       5.05      15.75
C       8.06       5.48      15.78
Zn       7.46       2.51      15.89
N       7.13       4.48      15.94
C       5.69       2.46      13.43
C       5.88       0.49      14.38
N       6.80       1.48      17.44
C      10.45       1.89      16.24
C       7.51       0.78      18.37
C       5.47       1.21      17.68
C       9.95       2.69      14.26
