13

C       2.22       9.39       5.34
Zn       2.82       6.43       5.45
N       3.49       5.38       7.00
C       4.37       8.96       5.30
C       2.78       4.69       7.92
C       4.82       5.12       7.24
N       0.87       6.18       5.02
C      -0.16       5.79       5.78
C       0.34       6.60       3.81
N       3.88       5.68       3.90
N       3.15       8.39       5.50
C       4.59       6.37       2.99
C       4.40       4.40       3.94
