38

Cu       1.87      -3.99      10.75
Cu      -1.83      -4.05      10.76
H       1.75      -1.71       4.81
H       1.75      -2.41       7.22
H       2.10       2.65       5.95
H       2.13       1.90       3.56
H       5.54       2.64       5.91
H       5.57       1.91       3.51
H      -1.68      -1.71       4.82
H      -1.69      -2.41       7.23
C       2.68      -1.87       5.35
C       2.68      -2.25       6.68
C       1.18       2.48       5.41
C       1.19       2.07       4.08
C      -1.26       2.48       5.39
C      -1.24       2.08       4.06
C       5.12      -1.86       5.35
C       5.11      -2.25       6.69
C       3.90      -1.67       4.67
C       3.89      -2.44       7.36
C       3.89      -2.90       8.78
C       3.90      -1.22       3.28
C      -0.05       2.69       6.07
C      -0.02       1.87       3.39
C      -0.01       1.40       1.97
C      -0.06       3.15       7.46
N       4.56      -0.51       1.40
N       5.01      -0.93       2.57
N      -0.74       3.85       9.34
N      -1.18       3.41       8.17
N       0.61       3.87       9.34
N       1.06       3.43       8.17
N       3.21      -0.55       1.40
N       2.77      -0.99       2.57
O      -2.71      -3.10       9.32
O       6.58       1.28       1.41
O       1.14       1.17       1.47
O       2.73      -3.04       9.31
