51

C       3.40      16.21      16.41
C       4.26       5.86      15.30
H       1.27      13.30      19.36
C       1.34      13.71      18.35
H       1.93       7.70      17.82
H       3.14       5.65      18.52
C      -3.07       5.15      13.52
C       1.52      14.67      15.72
C       2.26      14.71      18.04
C      -1.43      10.21      16.95
C       2.36      15.19      16.72
C      -0.15       8.48      15.80
C      -3.10       6.48      13.08
H      -2.37      10.58      17.34
H      -2.34       5.68      16.81
H       4.91       5.34      14.60
H       2.93      15.11      18.79
C       2.58       7.18      17.12
H      -0.09       7.51      15.31
C      -2.56       5.89      15.77
H      -2.92       8.56      13.67
C       3.26       6.02      17.50
C       0.96      10.53      16.54
C      -0.27      10.99      17.03
C       0.59      13.68      16.03
H      -3.32       6.69      12.04
H      -0.08      13.28      15.28
O       4.84       3.69      18.19
H      -2.75       3.82      15.18
O      -0.40      12.21      17.68
O       3.97      16.76      17.41
H       1.86      11.13      16.62
O       5.45       3.43      16.09
H       1.61      15.05      14.71
H       3.73       7.44      13.91
O       2.20       8.85      15.37
C      -1.35       8.96      16.32
O      -3.71       2.88      13.07
O      -3.51       4.26      11.33
O       3.65      16.45      15.17
O      -2.53       8.23      16.28
C       4.81       4.11      16.98
C       3.61       7.03      14.91
C       0.52      13.20      17.34
C       2.76       7.68      15.82
C      -2.89       7.52      13.99
C      -3.44       4.05      12.58
C       0.99       9.28      15.93
C      -2.78       4.85      14.86
C       4.09       5.34      16.60
C      -2.63       7.21      15.33
