28

H       5.86       9.37       5.30
H       1.61      11.88       4.83
C       6.33      11.87       4.68
C       7.30      12.17       5.81
C       1.26       9.35       4.21
C       0.15       9.18       5.24
O       2.58       7.23       5.35
O       4.80      14.03       5.35
O       4.84       7.23       5.35
O       2.54      14.03       5.35
H       8.21      12.66       5.41
H       6.84      12.85       6.55
H       7.62      11.22       6.29
H       6.83      11.16       4.00
H       6.22      12.78       4.06
H      -0.74       8.71       4.77
H       0.48       8.55       6.08
H      -0.16      10.18       5.63
H       0.88      10.02       3.40
H       1.46       8.39       3.69
C       3.71       7.83       5.27
C       3.68      13.41       5.32
C       4.92       9.92       5.22
C       2.54      11.33       4.96
C       4.98      11.29       5.13
C       2.51       9.96       4.81
C       3.74      11.99       5.19
C       3.70       9.25       5.11
