10

H       7.41       5.98       3.36
H       9.87       4.65       7.35
H       9.89       6.05       3.39
H       7.42       4.65       7.37
N      10.06       5.26       5.35
N       7.25       5.26       5.35
C       7.95       5.66       4.25
C       9.35       4.91       6.46
C       9.36       5.67       4.25
C       7.95       4.91       6.47
