54

C       8.26      17.28      18.11
C       7.62      17.65      16.95
C       6.76      18.77      16.91
C       6.58      19.53      18.05
C       3.31      27.04      20.13
C       4.09      25.91      20.37
C       3.55      24.63      20.17
C       2.20      24.56      19.76
C       1.48      25.74      19.59
C       6.16      21.18      20.44
C       6.57      22.39      19.89
C       5.69      23.49      19.81
C       4.41      23.44      20.33
C       3.97      22.24      20.99
C       4.85      21.10      21.00
C       4.38      19.90      21.60
C       3.15      19.82      22.21
C       2.33      20.97      22.25
C       2.72      22.16      21.67
N      10.86      14.00      21.05
N       2.02      26.96      19.75
Cl       7.86      16.72      15.50
H       7.87      15.13      19.98
H       9.15      13.04      20.36
H      11.30      17.33      21.42
H       9.05      18.22      22.58
H       8.92      16.41      18.11
H       6.26      19.03      15.98
H       5.93      20.40      18.02
H      12.47      15.13      21.69
O       7.59      20.44      22.72
O       7.85      22.47      19.40
H       5.10      26.05      20.75
H       6.03      24.39      19.31
H       1.73      23.60      19.56
H       3.73      28.03      20.25
H       0.42      25.72      19.31
H       2.08      23.03      21.75
H       5.03      19.03      21.58
H       2.81      18.91      22.69
H       8.09      20.05      23.45
H       8.01      23.39      19.14
Cl       0.79      20.91      23.08
C       9.60      14.01      20.58
C       8.88      15.18      20.37
C       9.47      16.42      20.68
C      10.79      16.40      21.18
C      11.44      15.18      21.34
C       8.71      17.68      20.54
C       8.56      18.50      21.64
C       7.75      19.65      21.60
C       7.07      20.00      20.44
C       7.24      19.20      19.27
C       8.07      18.03      19.30
