35

C       4.98       5.99       2.89
C       7.11       0.91       9.36
C       6.17       1.68       8.51
C       6.48       1.89       7.16
C       5.64       2.65       6.36
C       4.47       3.22       6.89
C       4.13       2.95       8.23
C       2.69       5.08       6.76
C       4.98       2.19       9.03
C       3.60       4.09       5.96
H       7.39       6.72       5.17
H       5.90       5.36       6.61
H       3.21       4.84       3.27
H       4.73       6.18       1.85
H       7.39       1.46       6.76
H       5.90       2.82       5.32
O       8.22       7.61       3.16
O       6.87       7.60       1.38
H       3.21       3.34       8.65
O       8.22       0.57       8.76
O       6.87       0.58      10.55
H       4.73       2.00      10.08
F       3.42       2.45       4.20
F       1.66       3.76       4.54
F       2.16       2.14       5.96
F       3.42       5.73       7.72
F       1.66       4.42       7.38
F       2.16       6.04       5.97
C       7.11       7.27       2.57
C       6.17       6.50       3.41
C       6.48       6.29       4.76
C       5.64       5.53       5.57
C       4.47       4.96       5.03
C       4.13       5.23       3.70
C       2.69       3.10       5.16
