35

H       4.39      16.59      17.68
H       3.33      16.40      19.88
H      -0.18      18.39      18.33
H       0.89      18.50      16.10
H       1.84      19.77      20.42
H       0.90      21.96      21.09
H      -2.77      20.03      22.26
H      -1.82      17.84      21.68
O      -2.71      22.47      22.69
O      -0.92      23.49      21.70
O       4.58      17.16      15.39
O       2.81      18.26      14.49
C      -1.58      22.47      22.06
F      -1.33      16.54      19.65
F       0.25      15.05      19.85
F      -0.83      15.75      21.62
C       3.42      17.67      15.45
C       2.72      17.58      16.76
C       3.39      16.98      17.84
C       2.78      16.89      19.08
C       1.50      17.41      19.28
C       0.82      17.99      18.19
C       1.42      18.07      16.94
C       0.75      17.30      20.62
C      -0.29      16.15      20.44
C       1.70      16.91      21.81
C       0.09      18.64      20.99
F       2.79      17.75      21.82
F       2.17      15.63      21.74
C       0.83      19.82      20.83
C       0.30      21.05      21.20
C      -1.21      18.73      21.53
C      -1.75      19.96      21.87
F       1.08      17.03      23.01
C      -1.00      21.14      21.71
