35

H       0.25       9.64      18.68
H       1.74      11.00      17.24
H       4.43      11.52      20.58
H       2.91      10.18      22.00
H       0.25      14.90      17.09
H       1.74      13.54      18.53
H       4.43      13.02      15.20
C       4.04      12.27      17.89
H       2.91      14.36      13.77
O      -0.58       8.75      20.69
O       0.77       8.76      22.47
O      -0.58      15.79      15.08
O       0.77      15.78      13.30
C       0.53       9.08      21.28
F       4.22      13.91      19.65
C       1.47       9.86      20.43
C       2.00      10.83      18.28
F       5.48      14.22      17.89
F       5.98      12.60      19.30
C       1.16      10.07      19.08
C       3.17      11.40      18.82
C       3.51      11.13      20.15
C       4.95      13.26      18.69
F       4.22      10.63      16.13
F       5.98      11.94      16.47
F       5.48      10.32      17.88
C       2.67      10.37      20.96
C       0.53      15.45      14.49
C       1.47      14.68      15.34
C       1.16      14.47      16.69
C       2.00      13.71      17.49
C       3.17      13.14      16.95
C       3.51      13.41      15.62
C       4.95      11.28      17.09
C       2.67      14.17      14.81
