22

Cd       1.61       6.81       9.20
Cd      -0.34       9.84       9.05
C      -1.18       9.31      12.15
C      -1.73      11.34      11.54
C       2.82       9.47       9.50
C       0.17       4.87      10.66
C      -3.21       9.64       7.45
C      -2.35      11.58       6.97
C       2.45       7.34       6.10
C       2.99       5.32       6.70
N       3.50       6.18      10.45
N      -0.92      10.25      11.24
N      -2.24      10.48       7.80
N       2.19       6.40       7.00
O      -0.44       7.67       8.25
O       0.48      11.95       8.69
O       1.71       8.98       9.99
O       0.79       4.70       9.56
C      -1.56       7.19       8.75
C       1.09      11.78       7.58
C       4.48       7.01      10.80
C       3.61       5.08      11.28
