24

H       2.87       6.04       8.03
H       1.43       6.01       6.00
H       3.54       2.42       4.78
H       4.89       2.61       6.89
H       1.88       3.20       3.36
H       0.10       5.55       4.30
H      -1.47       6.26       2.50
H      -2.94       5.58       0.59
H      -1.11       1.88       0.31
H       0.39       2.36       2.22
C       2.98       5.26       7.28
C       2.20       5.24       6.13
C       2.37       4.20       5.19
C       3.37       3.24       5.47
C       4.11       3.33       6.64
N       3.91       4.32       7.54
C       1.55       4.02       4.01
C       0.44       4.71       3.68
C      -0.40       4.37       2.54
C      -1.36       5.28       2.05
C      -1.14       2.84       0.82
C      -0.31       3.12       1.89
N      -2.07       3.71       0.37
C      -2.16       4.91       0.97
