48

H       9.41       3.11      11.05
H      11.47       1.76      11.38
H      10.09      -1.03       8.40
H       8.03       0.32       8.08
H      13.44       1.22      10.35
H      15.47      -2.57      10.24
H      11.22      -2.40       9.72
H      15.38       1.86       9.38
H      17.58       2.98       9.71
H      19.00      -0.44      11.88
H      16.78      -1.53      11.64
H      15.25      -4.33       8.94
H      15.14      -6.81       8.78
H      11.23      -6.77      10.50
H      11.33      -4.31      10.75
O       7.01       3.38      10.40
O       6.69       2.61       8.32
O      20.71       1.26      11.44
O      19.81       3.27      10.87
C       7.36       2.62       9.38
O      14.11      -9.06       9.07
C       8.59       1.79       9.56
C       9.57       2.20      10.48
C      10.73       1.45      10.65
C      10.93       0.27       9.91
C       9.94      -0.13       8.99
C       8.79       0.63       8.81
C      12.18      -0.51      10.04
C      13.41       0.14      10.26
C      14.61      -0.59      10.32
C      14.55      -1.99      10.20
C      13.34      -2.66       9.99
C      12.16      -1.90       9.91
C      15.92       0.08      10.49
C      16.16       1.36       9.95
C      17.39       1.98      10.12
C      18.43       1.33      10.81
C      18.20       0.05      11.33
C      16.96      -0.56      11.19
O      12.10      -9.04      10.06
C      14.37      -4.85       9.31
C      14.32      -6.24       9.21
C      13.29      -4.13       9.86
C      12.10      -6.22      10.18
C      12.16      -4.84      10.29
C      13.13      -8.43       9.59
C      19.74       2.01      11.03
C      13.18      -6.94       9.65
