48

C      -4.02      10.23       7.39
C      -5.25      11.05       7.21
C      -6.23      10.65       6.29
C      -7.39      11.40       6.12
C      -7.60      12.58       6.87
C      -6.60      12.98       7.78
C      -5.45      12.22       7.97
C      -8.85      13.35       6.73
C     -10.07      12.71       6.51
C     -11.27      13.44       6.45
C     -11.22      14.83       6.58
C     -10.00      15.50       6.78
C      -8.83      14.75       6.87
C     -12.58      12.76       6.28
C     -12.82      11.48       6.82
C     -14.06      10.86       6.66
C     -15.09      11.51       5.97
C     -14.87      12.79       5.44
C     -13.62      13.40       5.59
C     -16.40      10.83       5.74
C      -9.95      16.97       6.91
C     -11.03      17.70       7.46
H      -6.07       9.74       5.72
H      -8.13      11.08       5.40
H      -6.76      13.88       8.38
C      -8.82      17.69       6.48
H      -4.69      12.52       8.69
H     -10.10      11.62       6.43
H     -12.13      15.41       6.53
H      -7.88      15.25       7.06
H     -13.45      14.38       5.14
H     -12.04      10.98       7.40
H     -14.24       9.87       7.06
C      -8.76      19.07       6.60
H      -7.99      17.15       6.02
H      -7.89      19.62       6.28
H     -15.67      13.29       4.89
H     -11.91      17.18       7.83
C     -10.98      19.09       7.57
H     -11.81      19.65       7.99
C      -9.84      19.79       7.13
C      -9.79      21.27       7.19
O      -3.67       9.47       6.37
O      -3.35      10.24       8.45
O     -17.37      11.58       5.34
O     -16.47       9.57       5.90
O      -8.76      21.88       6.71
O     -10.77      21.90       7.71
