11

N      11.96       0.40       8.31
N      12.05      -0.96       8.22
O      13.76       2.66       7.37
C      12.13       0.70       9.61
Zn      12.06       1.83       6.81
O      10.43       2.78       7.17
C      10.49       4.09       7.06
C      14.83       1.96       7.55
C      11.78       1.15       3.84
N      12.39       1.03       5.04
N      13.58       0.38       4.83
