11

C       6.52       6.80      10.32
O       2.11       5.97      10.70
O       5.45       6.10      10.50
N       3.73       9.72       9.65
N       3.65       8.36       9.56
Zn       3.74       6.93      11.06
C       3.47       7.61      14.03
C       2.17       4.67      10.81
C       3.82       8.06       8.26
N       4.08       7.73      12.83
N       5.26       8.38      13.04
