76

Sr       5.04       7.19       5.19
Sr       9.29       6.74       5.76
Ni       4.38       8.26      10.97
Ni       5.68       1.32       5.49
H       7.97       9.24       4.71
H       7.58       8.33       3.45
H       7.99       9.85       8.16
H       9.52      10.64      10.07
H       3.70       6.51       1.86
H      10.62       7.18       3.11
H      11.00       8.61       3.71
H       2.07       3.68       3.29
H       9.05       1.64       2.98
H       6.38      10.59       5.08
H       6.34       4.72       6.27
H       6.75       5.64       7.51
H       6.35       4.08       2.80
H       4.81       3.29       0.89
H      10.66       7.38       9.10
H       3.73       6.71       7.84
H       3.31       5.29       7.24
H      12.24      10.23       7.66
H       5.26      12.27       7.98
H       7.91       3.34       5.91
C       6.51       9.16       9.52
C       7.72       9.76       9.21
C       8.56      10.17      10.25
C       5.27       7.30       0.60
C       4.02       6.72       0.84
C       5.56       8.55       8.55
C       6.14       7.54       1.82
C       3.56       2.52       4.28
C       2.34       2.68       3.63
C       1.51       1.57       3.47
C       4.81      11.62       4.02
C       6.07      11.53       4.63
C       4.50       3.61       4.64
C       3.93      10.38       4.10
C       7.84       4.75       1.44
C       6.62       4.16       1.75
C       5.79       3.75       0.70
C       9.09       6.61      10.36
C      10.35       7.18      10.12
C       8.79       5.34       2.42
C       8.21       6.39       9.14
C      10.74      11.40       6.69
C      11.96      11.24       7.34
C      12.80      12.35       7.49
C       9.48       2.29       6.96
C       8.23       2.39       6.35
C       9.79      10.31       6.34
C      10.36       3.53       6.90
N       6.10       8.99      10.81
N       3.97       1.30       4.74
N       8.26       4.90       0.15
N      10.32      12.62       6.24
O       4.47       8.06       9.11
O       5.79       8.52       7.33
O       7.22       8.19       1.71
O       5.69       7.00       2.88
O       7.65       8.35       4.46
O       5.59       3.18       5.25
O       4.28       4.80       4.39
O      11.36      10.34       3.46
O       4.39       9.49       4.89
O      10.94       7.63       3.92
O       9.90       5.80       1.87
O       8.55       5.39       3.63
O       7.11       5.78       9.26
O       8.68       6.90       8.08
O       6.68       5.61       6.51
O       8.69      10.74       5.76
O      10.03       9.12       6.58
O       2.93       3.57       7.53
O       9.89       4.44       6.13
O       3.39       6.27       7.03
