14

O       9.13       4.68      11.55
O       8.01       3.95       9.71
Zn       8.26       5.89       9.19
Zn       9.43       6.67      11.42
C       9.06       8.51       9.04
C      11.29       5.83       9.61
O       8.46       7.67       8.28
O       9.29       8.34      10.29
C       8.54       3.77      10.87
C       6.70       6.88      11.62
O       7.72       7.08      12.39
O       6.77       6.49      10.41
O      11.31       6.35      10.78
O      10.24       5.58       8.94
