16

C       9.96       0.94       2.46
C       8.10       3.84      -0.08
C      10.02       2.28       2.76
O       7.70       3.52      -1.23
C       8.71       2.81       0.82
O      10.69      -1.25       2.95
C       9.39       3.21       1.96
H      10.49       2.57       3.50
C       9.25       0.54       1.34
C       8.64       1.47       0.51
O       8.00       5.03       0.34
H       8.20       1.19      -0.26
H       9.18      -0.37       1.14
O      11.26       0.38       4.35
H       9.42       4.12       2.19
C      10.69      -0.06       3.32
