16

C      10.36       5.94       7.69
C       9.86       8.33       6.40
O      11.43       6.04      10.32
C      10.29       8.32       7.73
H       9.82       5.15       5.91
C       9.69       7.15       5.72
H      10.41       9.12       8.18
C      11.01       7.13       9.79
C      10.54       7.12       8.37
C       9.94       5.95       6.36
C       9.21       7.15       4.30
O      10.99       8.22      10.42
O       8.80       8.24       3.77
O       9.23       6.06       3.67
H      10.53       5.13       8.12
H       9.70       9.15       5.97
