16

O      14.59       2.74      11.14
C      14.59       1.55      10.77
C      16.03       0.95      12.75
H      17.08       0.30      14.35
C      16.57      -1.33      13.27
H      14.79      -1.08      10.59
C      15.26      -0.80      11.33
H      16.10       1.86      12.95
C      17.18      -2.35      14.17
O      17.28      -3.54      13.75
C      15.32       0.55      11.63
O      17.58      -2.04      15.32
O      14.02       1.11       9.74
C      16.64       0.02      13.58
C      15.89      -1.73      12.13
H      15.86      -2.63      11.90
