34

C       5.04      21.34       7.50
C       3.97      22.37       7.53
C       2.88      22.30       6.66
C       1.92      23.31       6.68
C       1.96      24.39       7.58
C       3.04      24.38       8.49
C       4.04      23.41       8.46
C       0.90      25.45       7.60
C      -0.31      25.31       8.30
C      -1.25      26.34       8.39
C      -0.99      27.57       7.79
C       0.22      27.76       7.10
C       1.12      26.71       7.00
C      -2.00      28.66       7.91
H       2.76      21.48       5.95
H       4.86      23.47       9.16
H      -2.18      26.18       8.93
H       0.47      28.71       6.63
O       6.21      21.62       7.90
O       4.74      20.16       7.08
O      -3.17      28.39       8.30
O      -1.64      29.87       7.64
O       0.64      22.08       5.20
O       0.14      24.21       5.47
O       3.86      25.13      10.53
O       2.68      26.53       9.32
O      -0.09      23.01       8.58
O      -1.58      24.07       9.80
O       3.01      25.98       5.87
O       2.69      28.14       6.08
N       0.82      23.19       5.71
N       3.20      25.43       9.53
N      -0.68      24.04       8.95
N       2.37      26.97       6.26
