66

H      10.80       2.70      21.15
H       9.42       1.86      19.26
H      10.83       5.11      16.80
H      12.18       5.97      18.66
H      17.28       6.50      23.82
H      18.70       7.28      25.71
H      15.16       8.17      28.00
H      13.74       7.43      26.10
H       6.20       6.44      16.89
H       7.39       4.54      18.00
H       9.37       3.81      14.23
H       8.13       5.72      13.29
H       7.57      -0.44      14.25
H       7.44       1.90      15.11
H      11.10       1.09      17.29
H      11.04      -1.22      16.35
H      16.10       4.98      30.96
H      16.85       5.67      28.69
H      17.95       9.47      30.41
H      17.22       8.59      32.62
H      19.07      12.38      26.82
H      17.46      10.47      26.78
H      20.31       8.25      29.15
H      21.79      10.23      29.10
C      12.37       4.89      21.10
C      13.08       5.37      21.99
C      13.87       5.90      22.94
C      14.60       6.38      23.81
C      11.59       4.39      20.04
C      10.81       3.22      20.19
C      10.04       2.74      19.13
C      10.05       3.42      17.91
C      10.82       4.58      17.75
C      11.58       5.07      18.80
C      15.41       6.88      24.84
C      16.82       6.88      24.73
C      17.62       7.31      25.79
C      17.02       7.76      26.97
C      15.62       7.81      27.08
C      14.82       7.38      26.03
C       6.91       5.83      16.35
C       7.56       4.77      16.95
C       8.46       4.01      16.19
C       8.65       4.34      14.85
C       7.97       5.43      14.32
C       8.32      -0.05      14.93
C       8.26       1.24      15.42
C       9.26       1.70      16.30
C      10.29       0.79      16.64
C      10.27      -0.49      16.11
C      16.55       5.96      30.80
C      16.95       6.35      29.53
C      17.48       7.64      29.36
C      17.59       8.45      30.49
C      17.17       7.98      31.72
C      19.31      11.45      27.33
C      18.42      10.38      27.29
C      18.74       9.21      27.98
C      19.99       9.15      28.63
C      20.82      10.27      28.60
N       9.22       2.99      16.82
N       7.12       6.17      15.06
N       9.29      -0.92      15.28
N      17.83       8.12      28.09
N      16.65       6.75      31.89
N      20.49      11.43      27.98
