164

Nd       0.33      14.46      10.47
Nd       6.08       5.55      10.43
Nd       0.33       8.31       2.03
Nd       6.08       0.21       2.07
Nd      11.81      -2.94      14.52
Nd       6.06       5.97      14.57
Nd      11.81       3.21      22.97
Nd       6.06      11.30      22.93
H       0.20      -0.01       5.89
H      10.93       0.55       3.97
H       2.82       0.90      15.10
H       4.00       2.99      14.73
H       7.69       1.30      14.79
H       9.05      -0.66      14.37
H       0.20       5.77       6.61
H      10.93       5.21       8.52
H       2.82      -0.63      22.40
H       4.00      -2.72      22.76
H       7.69      -1.03      22.71
H       9.05       0.93      23.13
H      11.95      11.53      19.11
H       1.21      10.97      21.02
H       9.33      10.62       9.90
H       8.14       8.53      10.26
H       4.46      10.22      10.21
H       3.10      12.18      10.63
H      11.95       5.75      18.39
H       1.21       6.31      16.47
H       9.33      12.15       2.60
H       8.14      14.24       2.23
H       4.46      12.55       2.29
H       3.10      10.59       1.87
C      10.90      -1.24       6.58
C      11.49      -0.36       5.75
C      10.68      -0.04       4.65
C       9.49      -0.67       4.67
C      11.45      15.22       7.86
C       8.38      -0.47       3.73
C       2.23       0.87      13.16
C       2.85       1.34      14.27
C       3.55       2.53      14.06
C       3.48       2.94      12.78
C       1.41      -0.38      12.97
C       4.12       4.09      12.12
C       8.00       1.94      12.89
C       8.10       1.13      13.97
C       8.88      -0.00      13.73
C       9.36      -0.04      12.45
C       7.30       3.26      12.78
C      10.28      -1.03      11.84
C      10.90       7.00       5.92
C      11.49       6.12       6.75
C      10.68       5.80       7.85
C       9.49       6.43       7.82
C      11.45       7.54       4.64
C       8.38       6.23       8.77
C       2.23      -0.60      24.34
C       2.85      -1.07      23.22
C       3.55      -2.26      23.43
C       3.48      -2.67      24.72
C       1.41       0.65      24.53
C       4.12       1.67       0.37
C       8.00      -1.67      24.61
C       8.10      -0.86      23.53
C       8.88       0.27      23.77
C       9.36       5.80       0.04
C       7.30      -2.99      24.71
C      10.28       6.79       0.66
C       1.25      12.76      18.42
C       0.65      11.88      19.25
C       1.47      11.56      20.35
C       2.66      12.19      20.32
C       0.69      -3.71      17.14
C       3.77      11.99      21.27
C       9.92      10.65      11.84
C       9.29      10.18      10.72
C       8.60       8.99      10.93
C       8.66       8.58      12.22
C      10.74      11.90      12.03
C       8.03       7.42      12.87
C       4.14       9.58      12.11
C       4.05      10.39      11.03
C       3.27      11.52      11.27
C       2.78      11.56      12.54
C       4.85       8.26      12.21
C       1.86      12.55      13.16
C       1.25       4.52      19.08
C       0.65       5.40      18.25
C       1.47       5.72      17.15
C       2.66       5.09      17.17
C       0.69       3.98      20.36
C       3.77       5.28      16.23
C       9.92      12.11       0.66
C       9.29      12.58       1.77
C       8.60      13.78       1.56
C       8.66      14.19       0.28
C      10.74      10.87       0.47
C       8.03       9.85      24.62
C       4.14      13.19       0.39
C       4.05      12.37       1.47
C       3.27      11.24       1.23
C       2.78       5.72      24.95
C       4.85      14.51       0.28
C       1.86       4.73      24.34
S       9.35      15.31       6.04
S       2.55       1.86      11.81
S       8.80       1.29      11.54
S       9.35       7.46       6.46
S       2.55       3.90       0.69
S       8.80       4.47       0.96
S       2.80      -3.79      18.96
S       9.60       9.66      13.19
S       3.34      10.23      13.46
S       2.80       4.06      18.54
S       9.60       7.61      24.31
S       3.34       7.05      24.04
O      10.87      14.27       8.43
O       0.34      -1.25       8.34
O       8.51       0.39       2.82
O       7.30      15.86       3.86
O       1.08      -0.65      11.80
O       1.13      -1.05      14.00
O       4.72       4.97      12.80
O       4.07       4.17      10.87
O       7.04       3.66      11.63
O       7.04       3.86      13.86
O      10.56      -0.92      10.63
O      10.78      -1.93      12.56
O      10.87       8.49       4.07
O       0.34       7.01       4.16
O       8.51       5.37       9.68
O       7.30       6.90       8.64
O       1.08       6.41       0.70
O       1.13       1.32      23.50
O       4.72      -4.70      24.70
O       4.07       1.59       1.63
O       7.04       2.10       0.87
O       7.04      -3.59      23.64
O      10.56       6.68       1.87
O      10.78       2.20      24.94
O       1.27      -2.76      16.57
O      11.80      12.77      16.66
O       3.64      11.13      22.18
O       4.84      -4.35      21.14
O      11.07      12.17      13.20
O      11.02      12.57      11.00
O       7.42       6.55      12.20
O       8.08       7.35      14.13
O       5.10       7.86      13.37
O       5.10       7.66      11.14
O       1.58      12.44      14.37
O       1.36      13.45      12.44
O       1.27       3.03      20.93
O      11.80       4.50      20.84
O       3.64       6.15      15.32
O       4.84       4.62      16.36
O      11.07       5.11      24.30
O      11.02      10.20       1.50
O       7.42      16.22       0.30
O       8.08       9.93      23.37
O       5.10       9.42      24.13
O       5.10      15.11       1.36
O       1.58       4.84      23.13
O       1.36       9.32       0.06
