28

Ca       0.45       9.45       8.24
Ca      -0.96      12.85       7.69
Ca      -1.91       4.97       9.21
Ca      -0.51      15.98       9.75
C       0.27       3.47      11.62
C       1.70      11.85       6.24
C       0.31      12.56      10.22
C       0.17       6.44       6.82
C      -1.73      10.94       5.83
C      -3.17       2.57      11.21
C      -1.78      16.27       7.23
C      -1.64       7.98      10.62
O       0.35      16.67      11.85
O      -0.22       3.95      10.55
O       1.74      10.73       6.81
O       1.10      12.86       6.65
O       0.46       7.65       6.81
O       0.13      11.54       9.51
O      -0.09      13.71       9.85
O      -0.57       5.87       7.65
O      -1.81      12.17       5.60
O      -1.25      10.47       6.90
O      -3.21       3.69      10.64
O      -2.57      15.97      10.80
O      -1.93       6.77      10.64
O      -1.60       2.88       7.93
O      -1.38      15.13       7.60
O      -0.90       8.55       9.80
