39

C       1.81      14.69      18.48
Si       5.54      13.96      14.66
H       3.39      15.21      12.96
H       7.81      13.49      13.77
C       4.81      12.14      12.55
C       4.08      11.72      11.43
C       4.31      10.37      10.83
H       5.55      11.46      16.36
H       6.27      16.15      15.55
C       4.59      13.41      13.13
C       3.12      12.56      10.86
H       3.39      15.21      16.36
H       7.81      13.49      15.55
C       4.59      13.41      16.19
C       3.12      12.56      18.46
C       7.25      13.17      14.66
H       5.55      11.46      12.96
H       6.27      16.15      13.77
C       5.71      15.83      14.66
H       2.56      12.24       9.99
H       2.56      12.24      19.33
O       1.41      15.68      11.53
O       1.39      14.36       9.67
H       7.22      12.08      14.66
H       4.75      16.35      14.66
O       4.96       9.51      17.77
O       3.82      10.16      19.65
O       1.40      15.67      17.77
O       1.39      14.37      19.65
C       3.60      14.23      12.55
C       2.87      13.81      11.43
C       1.81      14.68      10.83
C       4.81      12.14      16.77
C       4.08      11.72      17.89
O       4.97       9.51      11.53
O       3.81      10.16       9.67
C       4.31      10.36      18.48
C       3.60      14.23      16.77
C       2.87      13.81      17.89
