164

Zn       4.63       8.84      23.58
Zn       3.45       8.77      12.23
Zn       0.04       1.16      11.54
Zn       1.22       1.22       0.19
Zn       4.71       3.84      12.54
Zn       5.89       3.77      23.89
Zn       9.30       6.15       0.50
Zn       8.12       6.22      11.85
P       6.76       6.58      22.68
P       3.91       1.66      22.47
P       7.25       3.41      10.64
P       0.76       8.34      10.43
P       2.58       1.58      13.44
P       5.43       6.65      13.65
P       2.09       8.41       1.40
P       8.58       3.34       1.61
H       7.18       8.46       1.08
H       8.14       9.35       3.20
H       4.78       2.08       3.40
H       3.97       1.09       1.27
H       8.07       1.12       4.95
H       6.84       2.39       4.87
H       5.15       0.77       5.88
H       6.42       9.57       6.05
H       6.45       2.38       7.32
H       7.73       1.19       7.52
H       7.63       9.65       9.37
H       6.34       8.69      11.26
H       2.85       0.61      10.05
H       4.01       1.65       8.10
H       7.57       6.83      21.56
H       3.56       2.19      21.22
H       6.83       1.54      13.12
H       5.87       0.65      15.24
H       9.23       7.92      15.44
H       0.70       8.91      13.31
H       5.94       8.87      17.00
H       7.17       7.61      16.91
H       8.86       9.22      17.92
H       7.59       0.42      18.09
H       7.56       7.61      19.36
H       6.28       8.80      19.56
H       6.38       0.34      21.41
H       7.67       1.31      23.30
H       1.82       9.39      22.09
H       0.66       8.35      20.14
H       6.44       3.16       9.52
H       1.11       7.80       9.18
H       2.16       3.46      10.96
H       1.20       4.35       8.84
H       4.56       7.07       8.65
H       5.36       6.09      10.77
H       1.27       6.12       7.09
H       2.50       7.38       7.17
H       4.19       5.77       6.16
H       2.92       4.57       5.99
H       2.89       7.38       4.72
H       1.61       6.19       4.52
H       1.71       4.65       2.67
H       3.00       3.69       0.78
H       6.49       5.60       1.99
H       5.33       6.65       3.94
H       1.77       1.84      14.56
H       5.78       7.19      14.90
H       2.51       6.54      23.00
H       3.47       5.65      20.88
H       0.11       2.92      20.69
H       8.64       3.91      22.81
H       3.40       3.88      19.13
H       2.17       2.61      19.21
H       0.48       4.22      18.20
H       1.75       5.42      18.03
H       1.78       2.62      16.76
H       3.06       3.81      16.56
H       2.96       5.34      14.71
H       1.67       6.31      12.82
H       7.52       4.39      14.03
H       8.68       3.35      15.98
H       2.90       8.16       2.52
H       8.23       2.81       2.86
C       6.68       9.25       1.64
C       7.20       9.75       2.83
C       6.52       0.77       3.52
C       5.34       1.26       2.94
C       4.88       0.73       1.74
C       6.99       1.30       4.85
C       6.23       0.66       6.03
C       6.65       1.30       7.37
C       5.92       0.72       8.55
C       6.57       9.87       9.46
C       5.86       9.34      10.54
C       3.91       0.42       9.85
C       4.56       0.99       8.77
C       7.32       0.74      13.68
C       6.81       0.25      14.88
C       7.49       9.23      15.56
C       8.67       8.73      14.98
C       9.13       9.27      13.78
C       7.02       8.70      16.89
C       7.78       9.34      18.07
C       7.36       8.70      19.41
C       8.09       9.28      20.59
C       7.44       0.12      21.50
C       8.15       0.65      22.58
C       0.76       9.57      21.89
C       0.11       9.01      20.81
C       2.65       4.25      10.40
C       2.14       4.75       9.21
C       2.82       5.77       8.52
C       4.00       6.26       9.11
C       4.46       5.72      10.30
C       2.35       6.30       7.19
C       3.11       5.66       6.01
C       2.69       6.30       4.67
C       3.42       5.71       3.49
C       2.77       4.88       2.58
C       3.48       4.34       1.51
C       5.43       5.42       2.19
C       4.78       5.98       3.27
C       2.01       5.74      22.44
C       2.53       5.24      21.25
C       1.85       4.23      20.56
C       0.67       3.73      21.15
C       0.21       4.27      22.34
C       2.32       3.70      19.24
C       1.56       4.34      18.05
C       1.98       3.70      16.71
C       1.25       4.28      15.53
C       1.90       5.12      14.62
C       1.19       5.65      13.55
C       8.58       4.57      14.23
C       9.23       4.01      15.31
N       5.53       9.72       1.11
N       4.54       9.60      10.73
N       8.48       0.28      13.15
N       0.13       0.40      22.77
N       3.81       4.72      10.93
N       4.80       4.60       1.31
N       0.86       5.28      22.97
N       9.21       5.39      13.35
O       5.54       7.51      22.54
O       4.01       0.14      22.21
O       7.60       6.93      23.93
O       6.41       5.09      22.54
O       2.81       2.07      23.47
O       5.27       2.26      22.86
O       8.47       2.49      10.50
O       0.66       9.86      10.17
O       6.41       3.07      11.89
O       7.60       4.91      10.50
O       1.86       7.93      11.43
O       8.74       7.74      10.82
O       3.80       2.51      13.59
O       5.33       5.14      13.91
O       1.74       1.93      12.19
O       2.93       0.09      13.58
O       6.53       7.06      12.65
O       4.07       7.25      13.26
O       0.87       7.49       1.55
O       8.68       4.86       1.87
O       2.93       8.07       0.15
O       1.74       9.90       1.54
O       7.48       2.93       0.61
O       0.60       2.74       1.22
