200

In       0.00      16.71       5.57
In       0.00       5.57      16.71
In       0.00       5.57       5.57
In       0.00      16.71      16.71
In       3.67      16.71       5.57
In       3.67       5.57      16.71
In       3.67       5.57       5.57
In       3.67      16.71      16.71
H       3.75      16.29       1.25
H       6.90      18.35       2.48
H       5.12      19.49       1.25
H       1.82      18.15      15.26
H       3.75       5.98      21.03
H       6.90       3.92      19.80
H       5.12       2.78      21.02
H       3.75       9.89       5.15
H       6.90       8.66       7.21
H       5.12       9.88       8.36
H       1.82      18.15       7.01
H       3.75      12.39      17.12
H       6.90      13.61      15.06
H       5.12      12.39      13.92
H       1.82       4.13      15.26
H       3.58      17.12      12.39
H       0.43      15.06      13.61
H       2.21      13.92      12.39
H       3.58       5.15       9.89
H       0.43       7.21       8.66
H       2.21       8.36       9.88
H       3.58       1.25      16.29
H       0.43       2.48      18.35
H       2.21       1.25      19.49
H       5.51      15.26      18.15
H       3.58      21.03       5.98
H       0.43      19.80       3.92
H       2.21      21.02       2.78
H       5.51       7.01       4.13
H       3.58      17.12       9.89
H       0.43      15.06       8.66
H       2.21      13.92       9.88
H       3.58       5.15      12.39
H       0.43       7.21      13.61
H       2.21       8.36      12.39
H       3.58       1.25       5.98
H       0.43       2.48       3.92
H       2.21       1.25       2.78
H       5.51      15.26       4.13
H       3.58      21.03      16.29
H       0.43      19.80      18.35
H       2.21      21.02      19.49
H       5.51       7.01      18.15
H       3.75      16.29      21.03
H       6.90      18.35      19.80
H       5.12      19.49      21.02
H       3.75       5.98       1.25
H       6.90       3.92       2.48
H       5.12       2.78       1.25
H       3.75       9.89      17.12
H       6.90       8.66      15.06
H       5.12       9.88      13.92
H       3.75      12.39       5.15
H       6.90      13.61       7.21
H       5.12      12.39       8.36
H       1.82       4.13       7.01
C       1.85      16.98       2.91
C       1.81      17.17       1.42
C       2.90      16.69       0.70
C       0.70      17.76       0.72
C       6.93      18.38       1.40
C       5.92      19.01       0.70
C       1.85       5.30      19.37
C       1.81       5.10      20.86
C       2.90       5.58      21.58
C       0.70       4.52      21.55
C       6.93       3.90      20.88
C       5.92       3.26      21.57
C       1.85       8.23       5.84
C       1.81       9.72       6.03
C       2.90      10.44       5.55
C       0.70      10.41       6.62
C       6.93       9.74       7.24
C       5.92      10.43       7.88
C       1.85      14.05      16.44
C       1.81      12.56      16.24
C       2.90      11.84      16.72
C       0.70      11.86      15.66
C       6.93      12.53      15.04
C       5.92      11.84      14.40
C       5.48      16.44      14.05
C       5.52      16.24      12.56
C       4.43      16.72      11.84
C       6.64      15.66      11.86
C       0.40      15.04      12.53
C       1.41      14.40      11.84
C       5.48       5.84       8.23
C       5.52       6.03       9.72
C       4.43       5.55      10.44
C       6.64       6.62      10.41
C       0.40       7.24       9.74
C       1.41       7.88      10.43
C       5.48       2.91      16.98
C       5.52       1.42      17.17
C       4.43       0.70      16.69
C       6.64       0.72      17.76
C       0.40       1.40      18.38
C       1.41       0.70      19.01
C       5.48      19.37       5.30
C       5.52      20.86       5.10
C       4.43      21.58       5.58
C       6.64      21.55       4.52
C       0.40      20.88       3.90
C       1.41      21.57       3.26
C       5.48      16.44       8.23
C       5.52      16.24       9.72
C       4.43      16.72      10.44
C       6.64      15.66      10.41
C       0.40      15.04       9.74
C       1.41      14.40      10.43
C       5.48       5.84      14.05
C       5.52       6.03      12.56
C       4.43       5.55      11.84
C       6.64       6.62      11.86
C       0.40       7.24      12.53
C       1.41       7.88      11.84
C       5.48       2.91       5.30
C       5.52       1.42       5.10
C       4.43       0.70       5.58
C       6.64       0.72       4.52
C       0.40       1.40       3.90
C       1.41       0.70       3.26
C       5.48      19.37      16.98
C       5.52      20.86      17.17
C       4.43      21.58      16.69
C       6.64      21.55      17.76
C       0.40      20.88      18.38
C       1.41      21.57      19.01
C       1.85      16.98      19.37
C       1.81      17.17      20.86
C       2.90      16.69      21.58
C       0.70      17.76      21.55
C       6.93      18.38      20.88
C       5.92      19.01      21.57
C       1.85       5.30       2.91
C       1.81       5.10       1.42
C       2.90       5.58       0.70
C       0.70       4.52       0.72
C       6.93       3.90       1.40
C       5.92       3.26       0.70
C       1.85       8.23      16.44
C       1.81       9.72      16.24
C       2.90      10.44      16.72
C       0.70      10.41      15.66
C       6.93       9.74      15.04
C       5.92      10.43      14.40
C       1.85      14.05       5.84
C       1.81      12.56       6.03
C       2.90      11.84       5.55
C       0.70      11.86       6.62
C       6.93      12.53       7.24
C       5.92      11.84       7.88
O       3.00      16.88       3.45
O       0.73      16.87       3.51
O       3.00       5.40      18.83
O       0.73       5.41      18.77
O       3.00       7.69       5.74
O       0.73       7.63       5.73
O       3.00      14.59      16.54
O       0.73      14.65      16.54
O       4.33      16.54      14.59
O       6.60      16.54      14.65
O       4.33       5.74       7.69
O       6.60       5.73       7.63
O       4.33       3.45      16.88
O       6.60       3.51      16.87
O       4.33      18.83       5.40
O       6.60      18.77       5.41
O       4.33      16.54       7.69
O       6.60      16.54       7.63
O       4.33       5.74      14.59
O       6.60       5.73      14.65
O       4.33       3.45       5.40
O       6.60       3.51       5.41
O       4.33      18.83      16.88
O       6.60      18.77      16.87
O       3.00      16.88      18.83
O       0.73      16.87      18.77
O       3.00       5.40       3.45
O       0.73       5.41       3.51
O       3.00       7.69      16.54
O       0.73       7.63      16.54
O       3.00      14.59       5.74
O       0.73      14.65       5.73
O       1.83      17.47       6.32
O       1.83       4.80      15.96
O       1.83       4.80       6.32
O       1.83      17.47      15.96
O       5.51      15.96      17.47
O       5.51       6.32       4.80
O       5.51       6.32      17.47
O       5.51      15.96       4.80
