480

C       1.24      16.00      13.04
C      10.41      17.36      11.78
C       9.55      15.79      13.32
C       1.22      34.61      34.61
C      10.39      33.25      35.87
C       9.54      34.83      34.32
C       6.55      36.09      14.52
C       5.08      37.34      15.88
C       4.23      35.80      14.30
C       6.54      14.52      33.14
C       5.08      13.26      31.77
C       4.22      14.81      33.35
C       9.32      34.45      13.02
C       0.14      32.98      11.86
C       1.02      34.68      13.25
C       9.31      16.16      34.63
C       0.12      17.64      35.78
C       1.01      15.94      34.40
C       4.01      14.50      14.69
C       5.46      13.36      16.16
C       6.33      14.74      14.45
C       3.99      36.11      32.97
C       5.44      37.26      31.49
C       6.32      35.88      33.19
C       0.01      27.46       8.56
C      10.51      25.37       4.15
C      10.58      22.63       8.16
C      10.35      24.21       3.35
C      10.28      24.30       1.94
C      10.37      25.56       1.30
C      10.52      26.71       2.09
C      10.59      26.62       3.50
C       0.06      28.77       8.01
C      10.60      29.92       8.82
C      10.47      29.79      10.22
C      10.45      28.50      10.79
C      10.55      27.36       9.97
C      10.42      22.49       9.56
C      10.48      21.23      10.19
C       0.08      20.06       9.43
C       0.24      20.18       8.03
C       0.16      21.44       7.41
C      10.58      23.91       7.55
C       0.01      26.30       7.74
C      10.57      25.27       5.58
C       0.33      18.85      10.05
C      10.27      25.67      48.60
C      10.18      30.88      11.02
C      10.61      23.15      39.09
C       0.14      25.25      43.49
C      10.56      27.99      39.49
C       0.27      26.41      44.30
C       0.35      26.32      45.70
C       0.28      25.06      46.35
C       0.16      23.90      45.56
C       0.09      23.99      44.15
C       0.04      21.85      39.64
C      10.58      20.70      38.82
C      10.43      20.83      37.42
C      10.39      22.12      36.86
C      10.49      23.26      37.68
C      10.36      28.13      38.10
C      10.42      29.39      37.47
C       0.04      30.56      38.23
C       0.22      30.43      39.62
C       0.15      29.17      40.25
C      10.58      26.70      40.11
C      10.63      24.32      39.91
C       0.07      25.35      42.07
C       0.29      31.77      37.60
C       0.38      24.95      47.73
C      10.15      19.73      36.63
C       5.29      40.56      25.98
C       5.44      44.97      23.88
C       5.23      40.97      21.14
C       5.56      45.78      22.73
C       5.63      47.18      22.81
C       5.58      47.83      24.07
C       5.47      47.03      25.23
C       5.40      45.63      25.14
C       5.35      41.11      27.29
C       5.26      40.29      28.43
C       5.11      38.90      28.30
C       5.07      38.34      27.01
C       5.17      39.15      25.87
C       5.04      39.57      21.00
C       5.11      38.95      19.74
C       5.37      39.70      18.57
C       5.54      41.10      18.70
C       5.46      41.72      19.96
C       5.25      41.58      22.43
C       5.30      41.39      24.81
C       5.37      43.55      23.79
C       5.62      39.07      17.37
C       5.68       0.53      24.18
C       4.84      38.10      29.40
C       5.34      10.05      21.67
C       5.22       5.64      23.76
C       5.27       9.65      26.51
C       5.06       4.83      24.92
C       4.98       3.43      24.83
C       5.07       2.78      23.57
C       5.22       3.58      22.42
C       5.30       4.98      22.51
C       5.39       9.50      20.37
C       5.30      10.32      19.22
C       5.16      11.72      19.35
C       5.13      12.28      20.64
C       5.24      11.46      21.78
C       5.10      11.05      26.65
C       5.15      11.67      27.91
C       5.39      10.91      29.08
C       5.55       9.51      28.95
C       5.48       8.89      27.69
C       5.28       9.03      25.22
C       5.34       9.22      22.84
C       5.27       7.06      23.86
C       5.63      11.53      30.29
C       4.96       1.40      23.46
C       4.87      12.51      18.26
C       6.24      16.00      23.04
C       4.78      17.36      21.78
C       3.92      15.79      23.32
C       6.22      34.61      44.62
C       4.75      33.25      45.87
C       3.90      34.83      44.32
C       0.92      36.09      24.52
C      10.08      37.34      25.88
C       9.23      35.80      24.30
C       0.91      14.52      43.14
C      10.08      13.26      41.77
C       9.22      14.81      43.35
C       3.69      34.45      23.02
C       5.14      32.98      21.86
C       6.02      34.68      23.25
C       3.68      16.16      44.63
C       5.12      17.64      45.78
C       6.01      15.94      44.40
C       9.01      14.50      24.69
C      10.46      13.36      26.16
C       0.70      14.74      24.45
C       8.99      36.11      42.97
C      10.44      37.26      41.49
C       0.69      35.88      43.19
C       5.01      27.46      18.56
C       4.88      25.37      14.15
C       4.95      22.63      18.16
C       4.72      24.21      13.35
C       4.64      24.30      11.94
C       4.74      25.56      11.30
C       4.88      26.71      12.09
C       4.96      26.62      13.50
C       5.06      28.77      18.01
C       4.97      29.92      18.82
C       4.83      29.79      20.22
C       4.82      28.50      20.79
C       4.92      27.36      19.97
C       4.78      22.49      19.56
C       4.85      21.23      20.19
C       5.08      20.06      19.43
C       5.24      20.18      18.03
C       5.16      21.44      17.41
C       4.95      23.91      17.55
C       5.01      26.30      17.74
C       4.93      25.27      15.58
C       5.33      18.85      20.05
C       4.64      25.67       9.91
C       4.55      30.88      21.02
C       4.98      23.15       0.40
C       5.14      25.25       4.81
C       4.92      27.99       0.81
C       5.27      26.41       5.62
C       5.35      26.32       7.02
C       5.28      25.06       7.67
C       5.16      23.90       6.87
C       5.09      23.99       5.47
C       5.04      21.85       0.95
C       4.95      20.70       0.13
C       4.80      20.83      47.42
C       4.75      22.12      46.86
C       4.85      23.26      47.68
C       4.73      28.13      48.10
C       4.79      29.39      47.47
C       5.04      30.56      48.23
C       5.22      30.43       0.94
C       5.15      29.17       1.56
C       4.95      26.70       1.42
C       5.00      24.32       1.23
C       5.07      25.35       3.38
C       5.29      31.77      47.60
C       5.38      24.95       9.05
C       4.52      19.73      46.63
C      10.29      40.56      35.98
C      10.44      44.97      33.88
C      10.23      40.97      31.14
C      10.56      45.78      32.73
C      10.63      47.18      32.81
C      10.58      47.83      34.07
C      10.47      47.03      35.23
C      10.40      45.63      35.14
C      10.35      41.11      37.29
C      10.26      40.29      38.43
C      10.11      38.90      38.30
C      10.07      38.34      37.01
C      10.17      39.15      35.87
C      10.04      39.57      31.00
C      10.11      38.95      29.74
C      10.37      39.70      28.57
C      10.54      41.10      28.70
C      10.46      41.72      29.96
C      10.25      41.58      32.43
C      10.30      41.39      34.81
C      10.37      43.55      33.79
C      10.62      39.07      27.37
C       0.05       0.53      34.18
C       9.84      38.10      39.40
C      10.34      10.05      31.67
C      10.22       5.64      33.76
C      10.27       9.65      36.51
C      10.06       4.83      34.92
C       9.98       3.43      34.83
C      10.07       2.78      33.57
C      10.22       3.58      32.42
C      10.30       4.98      32.51
C      10.39       9.50      30.37
C      10.30      10.32      29.22
C      10.16      11.72      29.35
C      10.13      12.28      30.64
C      10.24      11.46      31.78
C      10.10      11.05      36.65
C      10.15      11.67      37.91
C      10.39      10.91      39.08
C      10.55       9.51      38.95
C      10.48       8.89      37.69
C      10.28       9.03      35.22
C      10.34       9.22      32.84
C      10.27       7.06      33.86
C      10.63      11.53      40.29
C       9.96       1.40      33.46
C       9.87      12.51      28.26
H      10.58      27.64       1.66
H       0.07      27.48       4.03
H      10.50      26.44      10.43
H       0.12      28.90       6.99
H      10.58      30.84       8.38
H      10.32      28.37      11.80
H      10.27      23.31      10.16
H       0.44      19.36       7.45
H       0.30      21.49       6.40
H      10.40      21.18      11.21
H      10.27      23.28       3.77
H      10.14      23.45       1.40
H       9.35      30.84      11.57
H       9.63      26.35      48.25
H       1.15      18.35       9.80
H       0.12      22.97      45.99
H       0.00      23.13      43.62
H      10.42      24.18      37.22
H       0.12      21.71      40.65
H      10.58      19.78      39.26
H      10.25      22.25      35.85
H      10.21      27.31      37.50
H       0.44      31.25      40.20
H       0.31      29.13      41.25
H      10.33      29.44      36.45
H       0.33      27.34      43.88
H       0.46      27.18      46.25
H       9.32      19.77      36.08
H       1.01      24.27      48.09
H       1.12      32.26      37.85
H       5.44      47.47      26.16
H       5.31      45.10      26.01
H       5.11      38.70      24.95
H       5.42      42.12      27.42
H       5.25      40.74      29.35
H       4.93      37.33      26.88
H       4.89      38.98      21.82
H       5.76      41.67      17.88
H       5.62      42.73      20.01
H       5.02      37.93      19.69
H       5.60      45.36      21.79
H       5.74      47.73      21.95
H       4.01      37.54      29.35
H       6.32       0.88      24.86
H       6.45      39.32      16.88
H       5.28       3.15      21.49
H       5.41       5.52      21.65
H       5.19      11.92      22.70
H       5.45       8.49      20.23
H       5.28       9.87      18.30
H       5.01      13.29      20.77
H       4.95      11.64      25.83
H       5.75       8.94      29.77
H       5.63       7.88      27.64
H       5.08      12.69      27.96
H       4.98       5.25      25.85
H       4.84       2.89      25.68
H       4.05      13.07      18.30
H       4.33       1.05      22.77
H       6.46      11.29      30.78
H       4.94      27.64      11.66
H       5.07      27.48      14.03
H       4.87      26.44      20.43
H       5.12      28.90      16.99
H       4.94      30.84      18.38
H       4.69      28.37      21.80
H       4.64      23.31      20.16
H       5.44      19.36      17.45
H       5.30      21.49      16.40
H       4.77      21.18      21.21
H       4.64      23.28      13.77
H       4.51      23.45      11.40
H       3.72      30.84      21.57
H       4.00      26.35       9.56
H       6.15      18.35      19.80
H       5.12      22.97       7.30
H       5.00      23.13       4.93
H       4.79      24.18      47.22
H       5.12      21.71       1.96
H       4.94      19.78       0.58
H       4.61      22.25      45.85
H       4.57      27.31      47.50
H       5.44      31.25       1.51
H       5.31      29.13       2.57
H       4.70      29.44      46.45
H       5.33      27.34       5.19
H       5.46      27.18       7.56
H       3.69      19.77      46.08
H       6.01      24.27       9.40
H       6.12      32.26      47.85
H      10.44      47.47      36.16
H      10.31      45.10      36.01
H      10.11      38.70      34.95
H      10.42      42.12      37.42
H      10.25      40.74      39.35
H       9.93      37.33      36.88
H       9.89      38.98      31.82
H       0.13      41.67      27.88
H      10.62      42.73      30.01
H      10.02      37.93      29.69
H      10.60      45.36      31.79
H       0.11      47.73      31.95
H       9.01      37.54      39.35
H       0.69       0.88      34.86
H       0.82      39.32      26.88
H      10.28       3.15      31.49
H      10.41       5.52      31.65
H      10.19      11.92      32.70
H      10.45       8.49      30.23
H      10.28       9.87      28.30
H      10.01      13.29      30.77
H       9.95      11.64      35.83
H       0.12       8.94      39.77
H      10.63       7.88      37.64
H      10.08      12.69      37.96
H       9.98       5.25      35.85
H       9.84       2.89      35.68
H       9.05      13.07      28.30
H       9.33       1.05      32.78
H       0.83      11.29      40.78
N       1.04      16.97      12.12
N       9.35      16.77      12.40
N       0.18      15.42      13.64
N       2.49      15.68      13.39
N       8.57      15.15      13.98
N      10.21      18.42      11.01
N       1.02      33.64      35.53
N       9.33      33.84      35.24
N       0.16      35.20      34.01
N       2.48      34.94      34.27
N       8.56      35.47      33.66
N      10.18      32.20      36.64
N       6.34      37.01      15.49
N       4.03      36.72      15.29
N       5.49      35.49      13.93
N       7.81      35.75      14.19
N       3.25      35.14      13.66
N       4.88      38.12      16.93
N       6.34      13.60      32.16
N       4.02      13.89      32.36
N       5.48      15.12      33.72
N       7.80      14.86      33.46
N       3.25      15.47      33.99
N       4.88      12.49      30.72
N       9.51      33.40      12.18
N       1.20      33.63      12.40
N      10.39      35.07      13.56
N       8.07      34.81      13.34
N       2.00      35.36      13.85
N       0.33      31.90      11.11
N       9.50      17.21      35.47
N       1.19      16.99      35.24
N      10.39      15.54      34.09
N       8.06      15.80      34.31
N       1.99      15.26      33.79
N       0.31      18.72      36.53
N       4.20      13.67      15.73
N       6.52      13.89      15.51
N       5.08      15.04      14.06
N       2.76      14.82      14.32
N       7.32      15.34      13.77
N       5.65      12.60      17.24
N       4.18      36.94      31.92
N       6.50      36.72      32.14
N       5.07      35.57      33.59
N       2.75      35.79      33.33
N       7.31      35.28      33.88
N       5.62      38.01      30.41
N      10.63      25.05       8.28
N      10.61      26.37       6.38
N      10.56      24.06       6.20
N      10.58      25.56      39.37
N       0.06      24.24      41.27
N       0.02      26.56      41.46
N       5.25      40.85      23.57
N       5.36      42.75      24.89
N       5.32      42.93      22.57
N       5.32       9.77      24.08
N       5.31       7.86      22.76
N       5.26       7.68      25.08
N       6.04      16.97      22.12
N       3.72      16.77      22.40
N       5.18      15.42      23.64
N       7.49      15.68      23.39
N       2.94      15.15      23.98
N       4.58      18.42      21.01
N       6.02      33.64      45.53
N       3.70      33.84      45.24
N       5.16      35.20      44.01
N       7.48      34.94      44.27
N       2.93      35.47      43.66
N       4.55      32.20      46.64
N       0.71      37.01      25.49
N       9.03      36.72      25.29
N      10.49      35.49      23.93
N       2.17      35.75      24.19
N       8.25      35.14      23.66
N       9.88      38.12      26.93
N       0.71      13.60      42.16
N       9.02      13.89      42.36
N      10.48      15.12      43.72
N       2.17      14.86      43.46
N       8.25      15.47      43.99
N       9.88      12.49      40.72
N       3.88      33.40      22.18
N       6.20      33.63      22.40
N       4.76      35.07      23.56
N       2.44      34.81      23.34
N       7.00      35.36      23.85
N       5.33      31.90      21.11
N       3.87      17.21      45.47
N       6.19      16.99      45.24
N       4.75      15.54      44.09
N       2.43      15.80      44.31
N       6.99      15.26      43.79
N       5.31      18.72      46.53
N       9.20      13.67      25.73
N       0.89      13.89      25.51
N      10.08      15.04      24.06
N       7.76      14.82      24.32
N       1.68      15.34      23.77
N       0.02      12.60      27.24
N       9.18      36.94      41.92
N       0.87      36.72      42.14
N      10.07      35.57      43.59
N       7.75      35.79      43.33
N       1.67      35.28      43.88
N      10.62      38.01      40.41
N       4.99      25.05      18.28
N       4.98      26.37      16.38
N       4.92      24.06      16.20
N       4.94      25.56       0.68
N       5.06      24.24       2.58
N       5.02      26.56       2.77
N      10.25      40.85      33.57
N      10.36      42.75      34.89
N      10.32      42.93      32.57
N      10.32       9.77      34.08
N      10.31       7.86      32.76
N      10.26       7.68      35.08
