20

H       0.60       4.06      16.28
H       0.53       4.08      13.75
H      -0.53       2.81      11.86
H      -0.77       2.96       9.36
H      -2.94       6.46       9.61
H      -2.87       6.43      12.14
H      -3.68       5.02      14.06
H      -3.43       4.88      16.55
C      -0.31       4.25      15.72
C      -0.37       4.27      14.33
C      -1.59       4.56      13.69
C      -1.08       3.64      11.41
C      -1.20       3.72      10.03
C      -2.44       5.67      10.17
C      -2.39       5.64      11.57
C      -1.69       4.62      12.21
C      -2.71       4.81      14.50
C      -2.58       4.73      15.88
N      -1.40       4.47      16.49
N      -1.86       4.72       9.42
