25

C       4.76       9.25       6.24
C       3.47      10.21       2.70
P       5.14       7.02       8.69
N       4.97       7.80       5.99
H       6.18       6.37       6.73
H       6.64       7.81       7.12
H       6.43       8.06       4.62
H       5.72       6.67       4.49
H       5.11       8.04       2.71
H       3.85       7.67       3.56
O       6.31       6.48       9.54
H       3.69      10.78       5.35
H       2.95       9.40       5.24
H       4.37       9.37       7.12
H       5.61       9.72       6.22
O       4.79       8.37       9.31
O       3.98       6.07       8.58
H       5.23      10.13       3.73
O       3.76       9.99       1.49
O       2.50      10.94       2.99
C       5.86       7.23       7.04
C       5.57       7.61       4.65
C       4.68       8.16       3.57
C       4.38       9.65       3.78
C       3.82       9.84       5.18
