25

C      -0.86      12.90      17.56
C      -1.15      12.52      15.17
C      -2.04      11.97      14.09
C      -2.34      10.49      14.30
P      -1.58      13.11      19.21
C      -2.90      10.30      15.70
C      -1.96      10.89      16.76
C      -3.25       9.92      13.22
N      -1.75      12.33      16.51
H      -0.54      13.77      17.25
H      -0.08      12.33      17.64
H      -0.29      12.07      15.13
H      -1.00      13.47      15.01
H      -1.61      12.09      13.22
H      -2.87      12.47      14.07
H      -1.49      10.00      14.25
H      -3.03       9.35      15.87
H      -3.77      10.73      15.76
O      -0.41      13.66      20.06
O      -1.93      11.77      19.83
O      -2.74      14.06      19.10
O      -2.96      10.14      12.00
O      -4.22       9.19      13.51
H      -2.35      10.76      17.64
H      -1.11      10.42      16.74
