462

H      14.92      14.94      18.75
H      16.18      16.02      17.03
H      17.58      17.38      15.58
H      19.15      18.82      14.48
H      20.68      20.05      18.23
H      17.12      17.04      21.70
H      16.94      20.63      19.16
H      18.19      23.02      22.43
H      19.75      21.33      23.08
H      20.53      16.10      19.92
H      21.19      19.41      23.43
H      22.49      17.41      23.43
H       6.69      34.79      23.16
H       7.94      32.75      23.09
H       9.33      30.81      22.66
H      10.88      29.13      21.96
H      12.42      31.73      19.00
H       8.88      36.27      19.85
H       8.66      32.28      18.04
H       9.90      33.89      14.33
H      11.50      35.29      15.45
H      12.29      35.19      21.56
H      12.95      36.54      16.93
H      14.26      37.55      18.65
H      23.30      28.74       3.92
H      24.56      29.69       5.72
H       0.85      30.27       7.61
H       2.42      30.50       9.39
H       3.94      26.63       8.59
H       0.36      25.13       4.26
H      25.30      25.53       8.63
H       1.40      21.50       9.05
H       2.99      21.79       7.28
H       3.77      27.14       4.34
H       4.44      22.44       5.45
H       5.74      23.45       3.72
H       2.36      11.15      26.86
H       3.61      10.07      28.59
H       5.02       8.73      30.04
H       6.58       7.30      31.15
H       8.10       6.03      27.41
H       4.55       9.03      23.92
H       4.33       5.46      26.46
H       5.57       3.06      23.20
H       7.16       4.73      22.55
H       7.96       9.97      25.70
H       8.62       6.64      22.20
H       9.92       8.64      22.19
H      18.97      -8.53      22.39
H      20.23      -6.49      22.47
H      21.65      -4.57      22.92
H      23.23      -2.91      23.61
H      24.74      -5.54      26.56
H      21.16     -10.05      25.68
H      20.98      -6.05      27.53
H      22.23      -7.70      31.23
H      23.80      -9.11      30.08
H      24.57      -8.97      23.98
H       0.10     -10.37      28.60
H       1.40     -11.37      26.86
H      10.73      -2.50      41.81
H      11.98      -3.46      40.01
H      13.37      -4.04      38.10
H      14.93      -4.28      36.30
H      16.47      -0.42      37.09
H      12.93       1.10      41.45
H      12.72       0.68      37.08
H      13.97       4.70      36.63
H      15.55       4.43      38.41
H      16.33      -0.92      41.37
H      17.00       3.78      40.24
H      18.30       2.78      41.98
H      21.80      25.20      15.10
H      23.98      18.55      10.39
H      24.00      24.63      10.94
H      21.59      19.13      14.23
H      13.47      26.38      16.16
H      15.70      25.73      24.27
H      15.67      23.09      18.77
H      13.33      28.75      21.82
H       5.08      26.85      14.63
H       7.33      34.17      11.09
H       7.35      30.73      16.13
H       4.87      30.57       9.76
H       9.21       0.91      30.63
H      11.43       7.64      35.21
H      11.44       1.56      34.77
H       9.03       7.00      31.39
H       0.77      -0.25      29.43
H       2.97       0.44      21.32
H       3.02       3.03      26.83
H       0.54      -2.55      23.74
H      17.53      -0.58      31.05
H      19.73      -7.97      34.47
H      19.71      -4.49      29.47
H      17.37      -4.34      35.91
H       3.41      15.59      23.12
H      21.62      10.82      23.07
H      24.18      16.25      21.98
H       0.78      10.62      24.92
H      20.30      38.25      20.37
H      13.09     -11.66      24.54
H      15.94      36.91      20.38
H      17.39      -9.95      23.79
H      11.79      24.60       2.29
H       4.87       0.99      43.43
H       7.42      25.29       3.44
H       9.16      -0.55      42.32
H      15.97      10.46      22.44
H       9.06      15.26      22.59
H      11.61       9.81      23.63
H      13.35      15.45      20.70
H       7.45     -12.01      25.14
H       0.82      37.91      20.96
H       3.09     -10.67      25.13
H       5.12      36.20      21.72
H      24.34       1.64      43.42
H      17.43      25.30       2.29
H      19.98       0.96      42.27
H      21.73      26.81       3.39
C      19.91      17.99      20.65
C      20.11      18.93      21.67
C      19.24      19.99      21.51
C      18.43      19.76      20.39
C      17.51      20.77      19.99
C      17.42      21.98      20.74
C      18.23      22.15      21.88
C      19.15      21.17      22.27
C      21.07      18.73      22.68
C      21.83      17.56      22.67
C      21.68      16.59      21.64
C      20.69      16.80      20.64
C      17.65      17.48      19.70
C      17.37      17.17      18.36
C      18.24      17.86      17.54
C      19.13      18.61      18.32
C      18.26      17.91      16.14
C      19.18      18.75      15.51
C      20.11      19.53      16.25
C      20.06      19.47      17.67
C      16.90      16.85      20.72
C      15.86      15.93      20.39
C      15.62      15.64      19.02
C      16.36      16.26      18.01
C      18.79      18.45      19.77
C      11.67      34.86      19.56
C      11.87      35.27      18.24
C      10.99      34.60      17.40
C      10.18      33.76      18.16
C       9.24      32.92      17.50
C       9.14      32.96      16.08
C       9.96      33.85      15.35
C      10.89      34.67      16.00
C      12.83      36.24      17.89
C      13.59      36.82      18.91
C      13.45      36.42      20.27
C      12.45      35.46      20.59
C       9.41      34.31      20.48
C       9.13      33.32      21.43
C       9.99      32.25      21.25
C      10.87      32.54      20.20
C      10.01      31.02      21.91
C      10.92      30.04      21.50
C      11.85      30.29      20.46
C      11.80      31.54      19.79
C       8.66      35.52      20.52
C       7.63      35.70      21.48
C       7.39      34.66      22.42
C       8.12      33.47      22.39
C      10.54      33.87      19.61
C       3.15      25.56       5.61
C       3.36      24.21       5.91
C       2.48      23.82       6.91
C       1.67      24.90       7.27
C       0.74      24.74       8.33
C       0.64      23.49       9.00
C       1.46      22.41       8.58
C       2.38      22.57       7.54
C       4.31      23.43       5.24
C       5.07      24.03       4.23
C       4.92      25.41       3.90
C       3.93      26.16       4.59
C       0.89      26.64       5.64
C       0.62      27.96       6.04
C       1.49      28.33       7.05
C       2.37      27.27       7.32
C       1.52      29.52       7.79
C       2.45      29.65       8.83
C       3.38      28.62       9.12
C       3.32      27.41       8.37
C      25.27      26.08       4.58
C      24.24      26.82       3.96
C      24.00      28.15       4.39
C      24.74      28.72       5.44
C       2.03      26.10       6.45
C       7.34       8.07      24.98
C       7.54       7.13      23.97
C       6.66       6.07      24.12
C       5.85       6.31      25.24
C       4.91       5.32      25.63
C       4.81       4.11      24.88
C       5.63       3.93      23.75
C       6.56       4.90      23.36
C       8.50       7.32      22.95
C       9.26       8.49      22.96
C       9.11       9.47      23.98
C       8.12       9.26      24.98
C       5.08       8.60      25.92
C       4.80       8.92      27.26
C       5.67       8.23      28.09
C       6.55       7.46      27.31
C       5.69       8.19      29.49
C       6.61       7.35      30.13
C       7.54       6.57      29.38
C       7.49       6.62      27.96
C       4.33       9.23      24.90
C       3.29      10.15      25.22
C       3.06      10.45      26.59
C       3.79       9.83      27.61
C       6.21       7.62      25.86
C      23.95      -8.66      25.98
C      24.16      -9.08      27.30
C      23.29      -8.41      28.14
C      22.48      -7.55      27.39
C      21.56      -6.70      28.06
C      21.47      -6.75      29.48
C      22.28      -7.66      30.20
C      23.19      -8.48      29.54
C      25.11     -10.05      27.63
C       0.74     -10.63      26.61
C       0.59     -10.22      25.26
C      24.73      -9.24      24.95
C      21.70      -8.09      25.07
C      21.42      -7.08      24.13
C      22.30      -6.03      24.31
C      23.18      -6.33      25.36
C      22.32      -4.79      23.66
C      23.25      -3.82      24.07
C      24.18      -4.09      25.11
C      24.12      -5.35      25.77
C      20.94      -9.29      25.02
C      19.91      -9.46      24.06
C      19.67      -8.41      23.13
C      20.41      -7.22      23.16
C      22.83      -7.66      25.94
C      15.71       0.65      40.09
C      15.92       2.01      39.78
C      15.04       2.40      38.79
C      14.23       1.32      38.43
C      13.30       1.47      37.37
C      13.21       2.72      36.69
C      14.02       3.79      37.10
C      14.95       3.64      38.15
C      16.87       2.79      40.46
C      17.63       2.19      41.47
C      17.49       0.82      41.80
C      16.49       0.06      41.12
C      13.45      -0.42      40.07
C      13.17      -1.73      39.68
C      14.04      -2.11      38.67
C      14.92      -1.06      38.39
C      14.05      -3.30      37.92
C      14.96      -3.42      36.87
C      15.89      -2.40      36.57
C      15.85      -1.20      37.33
C      12.71       0.15      41.13
C      11.67      -0.59      41.76
C      11.43      -1.92      41.33
C      12.16      -2.49      40.29
C      14.59       0.12      39.26
C      23.59      22.78      11.83
C      22.95      23.25      13.00
C      22.33      22.38      13.91
C      22.32      20.97      13.74
C      22.97      20.50      12.57
C      23.57      21.37      11.66
C      22.10      24.41      14.54
C      23.74      19.35      10.99
C      24.18      23.65      10.90
C      21.63      20.07      14.55
C      15.28      24.80      19.90
C      14.64      25.57      18.90
C      14.04      26.81      19.18
C      14.04      27.38      20.48
C      14.69      26.61      21.48
C      15.27      25.38      21.20
C      13.78      26.31      17.13
C      15.46      25.84      23.28
C      15.85      23.55      19.63
C      13.36      28.54      20.85
C       6.93      30.86      14.09
C       6.27      29.61      13.94
C       5.64      29.25      12.74
C       5.63      30.08      11.59
C       6.29      31.32      11.74
C       6.91      31.69      12.94
C       5.39      27.72      14.21
C       7.09      33.26      11.49
C       7.52      31.24      15.30
C       4.91      29.82      10.42
C      11.03       3.39      33.85
C      10.38       2.90      32.69
C       9.77       3.75      31.76
C       9.76       5.16      31.90
C      10.42       5.65      33.06
C      11.02       4.80      33.99
C       9.52       1.72      31.18
C      11.20       6.84      34.62
C      11.61       2.53      34.79
C       9.07       6.05      31.09
C       2.59       1.34      25.69
C       1.94       0.57      26.69
C       1.31      -0.65      26.40
C       1.29      -1.21      25.09
C       1.95      -0.45      24.10
C       2.56       0.77      24.38
C       1.07      -0.17      28.46
C       2.73       0.33      22.30
C       3.19       2.57      25.97
C       0.58      -2.36      24.72
C      19.32      -4.63      31.52
C      18.68      -3.38      31.70
C      18.08      -3.01      32.91
C      18.08      -3.85      34.05
C      18.72      -5.11      33.87
C      19.31      -5.48      32.66
C      17.83      -1.47      31.46
C      19.49      -7.06      34.08
C      19.89      -5.01      30.30
C      17.40      -3.60      35.24
C      24.39      14.23      22.26
C       0.64      14.32      22.56
C       1.35      13.26      23.13
C       0.75      12.01      23.42
C      24.51      11.91      23.10
C      23.79      12.98      22.56
C       2.59      14.99      23.01
C      22.49      11.34      22.96
C      23.68      15.39      21.93
C       1.36      11.06      24.24
C      16.15      38.17      21.99
C      17.54      38.38      21.76
C      17.96     -12.83      22.40
C      17.36     -11.95      23.33
C      15.98     -12.17      23.58
C      15.26     -13.18      22.92
C      19.49      38.43      20.97
C      13.96     -12.01      24.14
C      15.44      37.30      21.15
C      17.97     -10.76      23.75
C       7.64      26.04       1.55
C       9.02      25.74       1.48
C       9.73      25.78       0.27
C       9.13       0.04      44.28
C       7.75       0.37      44.35
C       7.04      26.42       0.32
C      10.97      25.02       1.83
C       5.73       0.79      43.93
C       6.92      25.76       2.72
C       9.74      -0.18      43.04
C      11.82      11.83      23.34
C      13.21      11.74      23.04
C      13.92      12.80      22.47
C      13.32      14.06      22.19
C      11.95      14.16      22.52
C      11.23      13.08      23.06
C      15.16      11.07      22.57
C       9.93      14.73      22.67
C      11.11      10.67      23.68
C      13.93      15.01      21.38
C       3.30     -11.93      23.53
C       4.69     -12.14      23.75
C       5.40     -13.17      23.12
C       5.09      38.19      22.18
C       3.71      38.42      21.93
C       2.70     -12.80      22.59
C       6.64     -12.20      24.56
C       1.69      38.26      21.36
C       2.59     -11.06      24.36
C       5.70      37.01      21.76
C      20.20       0.20      44.16
C      21.58       0.49      44.23
C      22.29      26.57       0.21
C      21.69      26.20       1.44
C      20.32      25.88       1.37
C      19.60      25.94       0.16
C      23.54       1.21      43.88
C      18.30      25.47       1.79
C      19.48       0.48      42.99
C      22.31      26.44       2.67
N      20.92      20.37      15.59
N      22.40      15.46      21.73
N      16.65      23.01      20.47
N      15.20      15.21      21.31
N      12.66      29.29      20.06
N      14.17      37.08      21.20
N       8.34      32.23      15.32
N       6.97      36.86      21.63
N       4.21      28.77      10.17
N       5.65      25.89       2.88
N      24.99      23.19      10.02
N      23.58      26.38       2.87
N       8.36       5.74      30.05
N       9.83      10.60      23.88
N       4.01       3.09      25.13
N       2.64      10.86      24.30
N      25.00      -3.10      25.50
N       1.31     -10.86      24.33
N      20.69      -6.01      30.25
N      19.25     -10.61      23.90
N      16.70      -2.55      35.50
N      18.21       0.34      42.83
N      12.42       3.00      35.67
N      11.01      -0.15      42.85
N      21.80      23.14      14.87
N      24.04      20.61      10.67
N      13.50      27.24      18.05
N      15.75      24.91      22.36
N       5.08      28.05      12.94
N       7.40      32.92      12.75
N       9.22       2.98      30.82
N      11.50       5.58      34.97
N       0.76      -1.09      27.53
N       3.04       1.24      23.23
N      17.55      -1.81      32.73
N      19.78      -6.71      32.82
N       2.57      13.71      23.41
N      22.52      12.60      22.50
N      19.47      39.43      21.86
N      13.99     -13.04      23.28
N      10.95      25.30       0.52
N       5.76      26.68       0.03
N      15.14      12.35      22.17
N       9.95      13.47      23.13
N       6.61     -13.19      23.66
N       1.72      39.29      22.22
N      23.51       0.94      45.19
N      18.32      25.70       0.47
O      22.82      24.55      13.38
O      23.06      19.20      12.16
O      14.49      25.23      17.59
O      14.79      26.92      22.81
O       6.13      28.65      14.89
O       6.38      32.31      10.81
O      10.24       1.59      32.33
O      10.51       6.96      33.45
O       1.81       0.90      28.00
O       2.03      -0.75      22.77
O      18.54      -2.40      30.76
O      18.82      -6.11      34.80
O       1.42      15.44      22.48
O      23.69      10.86      23.39
O      18.32      37.75      20.83
O      15.16     -11.40      24.35
O       9.80      25.24       2.49
O       6.94       0.66      43.30
O      13.98      10.61      23.10
O      11.13      15.21      22.24
O       5.46     -11.52      24.69
O       2.90      37.65      21.16
O      22.36       0.99      43.23
O      19.50      25.60       2.42
