24

Cd       4.88       1.21       1.29
Cd       6.85      -1.21      -1.29
O       5.26       0.61      -1.19
C       4.42       1.53      -1.50
O       3.80       2.19      -0.61
O       6.63      -1.33      -3.62
O       6.47      -0.61       1.19
O       7.93      -2.19       0.61
C       7.35      -2.38      -3.75
C       9.82       0.07      -1.32
C       8.22       1.70      -1.75
C       5.18      -3.95      -0.82
C       3.74      -2.30      -1.58
C       7.31      -1.53       1.50
C       4.38       2.38       3.75
C       1.91      -0.07       1.32
C       3.51      -1.70       1.75
N       3.20      -0.41       1.50
N       6.76       2.66       1.16
N       8.53       0.41      -1.50
N       4.97      -2.66      -1.16
C       6.55       3.95       0.82
C       7.99       2.30       1.58
O       5.10       1.33       3.62
