440

Ni      11.73       7.56      18.87
Ni      11.73       2.25      10.62
Ni      11.72      10.62       7.58
Ni      11.75      18.87       2.26
Ni       9.36      12.09       9.05
Ni       9.39      17.41       0.79
Ni       9.35       9.02      17.41
Ni       9.39       0.80      12.10
Ni       2.34      12.09       0.79
Ni       2.36      17.40       9.05
Ni       2.32       9.04      12.10
Ni       2.29       0.75      17.41
Ni       4.67       7.57      10.63
Ni       4.65       2.23      18.86
Ni       4.70      10.62       2.26
Ni       4.71      18.89       7.58
H       1.72       8.95      17.98
H       3.90       9.65      16.95
H       4.15       9.56      14.45
H       0.24       8.25      13.99
H      12.49      12.01      15.93
H       0.54      13.36      15.73
H       2.15      13.40      17.67
H      13.84      10.90       0.18
H       1.68       0.87      11.54
H       3.86       0.16      12.56
H       4.12       0.24      15.05
H       0.22       1.56      15.53
H      12.53      17.48      13.59
H       0.57      16.11      13.79
H       2.17      16.06      11.85
H      13.86      18.60       9.66
H       1.71      11.52       8.98
H       3.89      12.53       9.67
H       4.17      15.02       9.57
H       0.27      15.52       8.25
H      12.51      13.59      12.04
H       0.55      13.78      13.40
H       2.15      11.84      13.44
H      13.82       9.66      10.90
H       1.71      17.96       0.86
H       3.90      16.95       0.19
H       4.18      14.46       0.30
H       0.27      13.96       1.59
H      12.50      15.90      17.50
H       0.54      15.69      16.14
H       2.15      17.63      16.08
H      13.81       0.16      18.62
H       5.34      10.71       8.13
H       3.16       9.99       7.12
H       2.89      10.08       4.63
H       6.78      11.43       4.14
H       8.58       7.63       6.08
H       6.46       6.27       5.89
H       4.86       6.22       7.83
H       7.27       8.74      10.02
H       5.37      18.81       1.71
H       3.18      19.50       2.70
H       2.90      19.40       5.20
H       6.79      18.09       5.71
H       8.59       2.16       3.73
H       6.48       3.53       3.93
H       4.88       3.60       1.99
H       7.25       1.06      19.46
H       5.31       8.11      18.81
H       3.13       7.10      19.52
H       2.85       4.61      19.40
H       6.74       4.12      18.06
H       8.60       6.08       2.17
H       6.49       5.89       3.55
H       4.90       7.83       3.60
H       7.29      10.02       1.06
H       5.34       1.69      10.71
H       3.15       2.69      10.01
H       2.86       5.18      10.11
H       6.76       5.69      11.43
H       8.59       3.73       7.65
H       6.48       3.94       6.29
H       4.86       2.01       6.25
H       7.28      19.48       8.77
H      12.36      10.69       1.69
H      10.18       9.99       2.72
H       9.92      10.10       5.21
H      13.82      11.41       5.68
H       1.57       7.64       3.75
H      13.53       6.29       3.95
H      11.93       6.25       2.01
H       0.23       8.74      19.49
H      12.39      18.80       8.14
H      10.21      19.51       7.13
H       9.94      19.40       4.64
H      13.83      18.06       4.15
H       1.54       2.17       6.09
H      13.51       3.54       5.89
H      11.91       3.59       7.83
H       0.23       1.05      10.02
H      12.34       8.13      10.70
H      10.17       7.11       9.99
H       9.91       4.61      10.08
H      13.81       4.15      11.42
H       1.55       6.07       7.64
H      13.51       5.89       6.28
H      11.91       7.83       6.24
H       0.25      10.02       8.76
H      12.35       1.68      18.82
H      10.18       2.70      19.52
H       9.91       5.20      19.40
H      13.81       5.66      18.06
H       1.56       3.73       2.16
H      13.53       3.94       3.54
H      11.92       2.00       3.60
H       0.27      19.46       1.08
H       8.72       8.94      11.53
H      10.90       9.65      12.54
H      11.17       9.56      15.04
H       7.27       8.23      15.52
H       5.49      12.03      13.61
H       7.61      13.38      13.79
H       9.20      13.42      11.85
H       6.79      10.89       9.67
H       8.70       0.83      17.98
H      10.89       0.16      16.98
H      11.19       0.29      14.50
H       7.29       1.59      13.98
H       5.47      17.47      15.94
H       7.59      16.12      15.73
H       9.19      16.06      17.67
H       6.81      18.59       0.20
H       8.74      11.54       0.88
H      10.91      12.55       0.16
H      11.19      15.04       0.26
H       7.30      15.53       1.61
H       5.48      13.57      17.51
H       7.59      13.76      16.14
H       9.18      11.81      16.08
H       6.78       9.63      18.61
H       8.74      17.97       8.96
H      10.91      16.94       9.67
H      11.17      14.45       9.58
H       7.28      13.98       8.24
H       5.50      15.93      12.04
H       7.62      15.73      13.40
H       9.22      17.66      13.44
H       6.80       0.19      10.92
C      13.52       8.10      16.53
C       0.81       8.52      16.06
C       1.85       8.93      16.90
C       3.06       9.33      16.33
C       3.21       9.30      14.94
C       1.03       8.55      14.68
C      11.82      10.41      18.14
C      12.99      11.34      17.92
C      13.21      12.07      16.75
C       0.31      12.82      16.64
C       1.21      12.84      17.71
C      13.95      11.42      18.94
C      13.49       1.75      13.01
C       0.78       1.30      13.47
C       1.82       0.89      12.62
C       3.03       0.48      13.18
C       3.18       0.49      14.57
C       1.01       1.27      14.85
C      11.87      19.09      11.40
C      13.03      18.14      11.60
C      13.25      17.42      12.78
C       0.34      16.66      12.88
C       1.24      16.63      11.81
C      13.98      18.06      10.59
C      13.51      12.99       8.11
C       0.82      13.45       8.53
C       1.85      12.60       8.95
C       3.06      13.16       9.35
C       3.23      14.54       9.32
C       1.05      14.83       8.55
C      11.83      11.39      10.43
C      12.99      11.60      11.37
C      13.22      12.77      12.09
C       0.32      12.87      12.85
C       1.22      11.81      12.87
C      13.95      10.59      11.44
C      13.52      16.49       1.73
C       0.82      16.03       1.31
C       1.85      16.88       0.89
C       3.07      16.32       0.51
C       3.24      14.94       0.54
C       1.05      14.65       1.29
C      11.83      18.11      19.09
C      13.00      17.89      18.16
C      13.22      16.71      17.44
C       0.31      16.60      16.68
C       1.22      17.67      16.65
C      13.96      18.90      18.08
C       7.59      11.58       6.68
C       6.22      11.15       6.21
C       5.19      10.73       7.06
C       3.98      10.32       6.49
C       3.83      10.34       5.11
C       6.00      11.13       4.83
C       9.26       9.23       8.28
C       8.09       8.29       8.08
C       7.86       7.57       6.90
C       6.69       6.82       6.80
C       5.79       6.79       7.87
C       7.14       8.21       9.09
C       7.63      17.94       3.19
C       6.25      18.37       3.64
C       5.22      18.78       2.78
C       4.01      19.18       3.34
C       3.84      19.15       4.72
C       6.01      18.38       5.01
C       9.26       0.58       1.53
C       8.10       1.52       1.73
C       7.87       2.23       2.91
C       6.71       2.99       3.02
C       5.81       3.03       1.95
C       7.15       1.61       0.71
C       7.57       6.65      17.93
C       6.19       6.19      18.36
C       5.17       7.03      18.78
C       3.95       6.47      19.18
C       3.79       5.09      19.14
C       5.96       4.81      18.36
C       9.28       8.27       0.57
C       8.11       8.07       1.51
C       7.89       6.90       2.24
C       6.72       6.80       3.00
C       5.82       7.87       3.03
C       7.16       9.09       1.60
C       7.60       3.17      11.57
C       6.22       3.62      11.15
C       5.19       2.77      10.74
C       3.98       3.32      10.33
C       3.81       4.70      10.36
C       5.98       5.00      11.13
C       9.26       1.53       9.24
C       8.10       1.74       8.31
C       7.87       2.92       7.59
C       6.70       3.03       6.84
C       5.79       1.97       6.81
C       7.13       0.73       8.23
C       0.56      11.56       3.15
C      13.26      11.14       3.62
C      12.22      10.72       2.77
C      11.01      10.32       3.34
C      10.85      10.35       4.72
C      13.03      11.12       5.00
C       2.25       9.24       1.54
C       1.08       8.30       1.75
C       0.85       7.59       2.93
C      13.76       6.84       3.04
C      12.86       6.81       1.97
C       0.13       8.22       0.74
C       0.59      17.93       6.68
C      13.28      18.36       6.22
C      12.25      18.77       7.06
C      11.04      19.18       6.50
C      10.88      19.15       5.12
C      13.05      18.37       4.84
C       2.21       0.57       8.28
C       1.05       1.51       8.08
C       0.83       2.23       6.90
C      13.73       2.99       6.80
C      12.83       3.02       7.87
C       0.10       1.60       9.10
C       0.54       6.67      11.57
C      13.24       6.21      11.14
C      12.21       7.05      10.73
C      11.00       6.49      10.32
C      10.85       5.10      10.34
C      13.02       4.83      11.12
C       2.22       8.27       9.24
C       1.06       8.07       8.30
C       0.83       6.89       7.58
C      13.74       6.79       6.83
C      12.84       7.86       6.80
C       0.11       9.09       8.22
C       0.53       3.12      17.92
C      13.24       3.60      18.36
C      12.21       2.76      18.79
C      11.00       3.33      19.19
C      10.85       4.71      19.15
C      13.02       4.98      18.37
C       2.22       1.53       0.57
C       1.07       1.74       1.52
C       0.84       2.92       2.23
C      13.75       3.02       2.99
C      12.85       1.96       3.03
C       0.11       0.72       1.61
C       6.46       8.07      13.00
C       7.83       8.51      13.46
C       8.86       8.92      12.61
C      10.07       9.33      13.17
C      10.23       9.30      14.56
C       8.06       8.53      14.84
C       4.80      10.42      11.41
C       5.97      11.36      11.61
C       6.20      12.08      12.79
C       7.38      12.83      12.88
C       8.27      12.86      11.82
C       6.92      11.43      10.60
C       6.44       1.71      16.49
C       7.83       1.29      16.04
C       8.85       0.87      16.90
C      10.07       0.49      16.35
C      10.25       0.53      14.97
C       8.07       1.29      14.67
C       4.79      19.05      18.15
C       5.95      18.12      17.94
C       6.18      17.40      16.76
C       7.36      16.66      16.65
C       8.26      16.62      17.71
C       6.91      18.03      18.95
C       6.47      13.00       1.76
C       7.85      13.47       1.32
C       8.88      12.62       0.90
C      10.09      13.18       0.49
C      10.25      14.56       0.52
C       8.08      14.84       1.31
C       4.80      11.37      19.11
C       5.96      11.57      18.16
C       6.19      12.75      17.45
C       7.36      12.85      16.68
C       8.25      11.78      16.65
C       6.91      10.55      18.08
C       6.47      16.51       8.09
C       7.84      16.04       8.52
C       8.88      16.89       8.94
C      10.09      16.32       9.34
C      10.24      14.94       9.32
C       8.07      14.66       8.54
C       4.83      18.13      10.44
C       5.99      17.93      11.38
C       6.22      16.75      12.09
C       7.39      16.64      12.85
C       8.29      17.70      12.88
C       6.95      18.94      11.46
N       2.20       8.93      14.13
N       0.99      12.15      18.84
N       2.17       0.87      15.38
N       1.02      17.32      10.68
N       2.23      15.36       8.93
N       0.99      10.67      12.18
N       2.23      14.12       0.92
N       1.00      18.80      17.34
N       4.83      10.74       4.29
N       6.02       7.47       9.00
N       4.84      18.77       5.54
N       6.03       2.35       0.81
N       4.78       4.27      18.74
N       6.05       9.00       2.34
N       4.80       5.53      10.75
N       6.01       0.83       7.50
N      11.86      10.74       5.54
N      13.08       7.49       0.83
N      11.88      18.75       4.30
N      13.06       2.33       9.01
N      11.85       4.29      10.73
N      13.07       9.00       7.49
N      11.85       5.52      18.75
N      13.07       0.81       2.35
N       9.23       8.92      15.37
N       8.04      12.17      10.68
N       9.25       0.92      14.14
N       8.03      17.30      18.85
N       9.26      15.38       0.92
N       8.02      10.64      17.33
N       9.23      14.12       8.93
N       8.07      18.84      12.19
O      13.45       7.81      17.80
O      12.59       8.07      15.70
O      11.92       9.64      19.14
O      10.87      10.45      17.29
O      13.41       1.98      11.73
O      12.58       1.84      13.85
O      11.92       0.18      10.39
O      10.93      19.06      12.27
O      13.42      11.73       7.83
O      12.60      13.83       8.08
O      11.93      10.39       9.67
O      10.88      12.24      10.47
O      13.44      17.76       1.99
O      12.61      15.64       1.79
O      11.95      19.13       0.18
O      10.88      17.27      19.03
O       7.65      11.84       7.95
O       8.51      11.65       5.85
O       9.18      10.00       9.29
O      10.20       9.20       7.42
O       7.71      17.69       1.91
O       8.54      17.88       4.03
O       9.20      19.48       0.52
O      10.20       0.61       2.39
O       7.64       7.92      17.65
O       8.49       5.82      17.89
O       9.17       9.26      19.48
O      10.22       7.42       0.61
O       7.69       1.91      11.85
O       8.51       4.02      11.60
O       9.17       0.52      10.01
O      10.20       2.39       9.20
O       0.63      11.84       1.88
O       1.48      11.59       3.98
O       2.16      10.01       0.53
O       3.20       9.20       2.39
O       0.67      17.68       7.95
O       1.49      17.88       5.83
O       2.16      19.48       9.29
O       3.15       0.61       7.42
O       0.61       7.94      11.85
O       1.46       5.83      11.60
O       2.14       9.27      10.02
O       3.16       7.41       9.21
O       0.59       1.84      17.69
O       1.45       3.95      17.83
O       2.12       0.50      19.49
O       3.16       2.39       0.60
O       6.37       7.81      11.73
O       5.55       8.00      13.85
O       4.89       9.65      10.40
O       3.86      10.46      12.26
O       6.35       1.96      17.76
O       5.54       1.77      15.64
O       4.86       0.16      19.14
O       3.84      19.00      17.30
O       6.39      11.73       1.99
O       5.57      13.85       1.85
O       4.90      10.38       0.19
O       3.87      12.24      19.08
O       6.39      17.79       7.84
O       5.56      15.68       8.02
O       4.91      19.14       9.67
O       3.89      17.27      10.48
O      10.55       7.67      17.51
O      10.57       2.16      11.99
O      10.54      11.98       7.69
O      10.57      17.52       2.13
O       3.51      11.97       2.16
O       3.54      17.53       7.69
O       3.49       7.68      11.99
O       3.47       2.10      17.51
