55

N       6.25      13.18       5.71
N       5.89      13.08       3.51
N       9.91       8.00      -5.98
N       8.66       9.70      -5.25
N       4.24      20.36      -5.40
N       5.53      18.82      -4.45
N       6.94      13.96      -1.96
H       4.77      11.74       6.30
H       4.30      11.60       3.54
H       7.43      14.35       4.35
H       8.67       7.51      -7.68
H       7.11       9.61      -6.77
H      10.49       9.12      -4.23
H       3.39      18.51      -4.77
H       7.43      19.88      -4.58
H       5.81      21.81      -5.74
H       6.59      15.39       2.38
H       7.13      15.75      -0.00
H       5.96      11.69      -0.87
H       5.52      11.31       1.53
H       4.52      15.04      -2.06
H       3.89      17.17      -3.15
H       8.04      17.83      -4.21
H       8.62      15.70      -3.11
H       6.43      13.66      -4.59
H       7.20      11.83      -6.03
H       9.19      10.02      -2.65
H       8.52      11.92      -1.24
C       5.25      12.25       5.47
C       5.02      12.17       4.12
C       6.62      13.66       4.53
C       8.82       8.16      -6.83
C       8.04       9.20      -6.39
C       9.79       8.95      -5.04
C       4.26      19.15      -4.86
C       6.36      19.90      -4.77
C       5.55      20.84      -5.35
C       6.06      13.31       2.13
C       6.50      14.57       1.68
C       6.79      14.77       0.33
C       6.62      13.74      -0.60
C       6.12      12.50      -0.15
C       5.86      12.28       1.19
C       6.60      15.21      -2.55
C       5.27      15.65      -2.55
C       4.92      16.84      -3.17
C       5.91      17.62      -3.80
C       7.25      17.21      -3.78
C       7.58      16.01      -3.15
C       7.39      12.91      -2.80
C       7.04      12.87      -4.16
C       7.46      11.82      -4.97
C       8.23      10.78      -4.44
C       8.60      10.82      -3.08
C       8.20      11.88      -2.28
