68

Lu       4.97       0.46       9.33
Lu       2.14       4.72       0.29
H       8.94       6.12       2.30
H      -0.59       4.77       1.71
H       5.84       3.80       8.02
H       1.55       3.35       8.05
H       2.42      -2.67       6.88
H       2.60      -0.53       2.14
H       2.00       8.14       1.30
H       7.70       0.58       1.96
H       7.28       9.07       1.76
H       5.96       0.02       5.38
H       6.31      -0.50       3.73
H      -1.82      -0.95       7.32
H       7.71       0.40       7.91
H       1.28       1.37       1.61
H       5.56       1.83       1.57
H       4.70       7.84       2.75
H       4.51       5.70       7.49
H       5.11      -2.97       8.32
H      -0.58       4.59       7.66
H      -0.17      -3.90       7.86
H       1.15       5.15       4.25
H       0.81       5.67       5.89
C       5.35       8.97       0.04
C       4.28      -0.86       7.11
C      -2.47       2.35       9.31
C       6.39       4.41       8.72
C      -2.69       3.80       9.49
C       6.11      -0.16       0.94
C       4.04      -1.67       5.91
C       1.76       4.15       8.75
C       0.62       9.57       0.81
C       3.00      -2.61       5.96
C       4.85      -1.55       4.74
C       6.05       7.67       0.00
C       1.77      -3.80       9.58
C       2.83       6.03       2.51
C       9.59       2.82       0.32
C       0.72       0.76       0.90
C       9.81       1.38       0.13
C       1.00       5.33       8.69
C       3.07       6.84       3.71
C       5.36       1.02       0.87
C       6.49      -4.39       8.82
C       4.11       7.78       3.66
C       2.26       6.72       4.88
C       1.06      -2.50       9.62
N       1.58       9.01       1.62
N       7.13      -0.26       1.89
N       5.93      -0.70       4.66
N       5.54      -3.84       8.00
N      -0.02       5.43       7.74
N       1.18       5.87       4.96
O       3.29       1.85       8.66
O       3.61      -1.03       8.20
O       6.71       1.66       8.66
O       6.91       7.34       0.92
O       1.13       6.80       0.13
O       5.23       0.04       7.12
O       8.68       5.34       1.79
O       3.82       3.32       0.96
O       3.50       6.20       1.42
O       0.40       3.51       0.96
O       0.21      -2.17       8.70
O       5.98      -1.63       9.49
O       1.89       5.14       2.50
O      -1.57      -0.17       7.84
