36

H       7.74       9.72       6.58
H       8.67       9.90       8.81
H       8.52       8.17       8.38
H       7.28       8.93       9.45
H       1.49      11.75       8.25
H       1.37      11.59       5.78
H       2.56      12.93       5.74
H       0.96      13.23       6.43
H       7.53      11.89       8.97
H       8.89      11.63       7.06
H       8.56      13.38       7.20
H       7.62      12.38       6.01
H       1.81       9.67       8.95
H       0.59       9.77       6.96
H       1.01       8.04       7.15
H       1.97       9.08       6.03
C       4.74       7.88       7.56
C       4.71      13.65       7.55
C       5.94      10.08       7.59
C       3.48      11.45       7.67
C       5.93      11.47       7.70
C       3.51      10.05       7.79
C       4.70      12.17       7.62
C       4.73       9.35       7.64
C       7.95       9.09       8.57
C       1.75      12.48       6.32
C       8.09      12.39       7.02
C       1.43       9.05       6.99
N       7.19       9.41       7.39
N       2.23      12.12       7.64
N       7.13      12.15       8.06
N       2.30       9.36       8.10
O       3.59       7.25       7.52
O       5.87      14.28       7.52
O       3.56      14.28       7.52
O       5.90       7.25       7.52
