52

H       4.24       8.45      13.90
H       5.44       1.75      16.18
H       5.83       2.03      18.36
H       3.61       1.33      17.44
H       2.88       2.32      18.76
H       3.90       0.86      19.15
H       5.15       8.32      11.87
H       2.60       8.19      12.21
H       2.63       7.37      10.60
H       3.23       9.06      10.77
H       4.54       9.52      16.06
H       2.43       9.92      17.12
H       2.05       8.16      17.01
H       2.17       9.17      15.50
H       6.03       0.81      14.05
H       4.19      -0.22      12.93
H       3.28       1.32      13.01
H       3.64       0.41      14.53
C       4.38       7.50      14.39
C       5.22       2.69      15.69
C       4.73       5.22      10.08
C       4.60       4.89      20.00
C       4.85       3.79      17.83
C       4.58       6.36      12.25
C       4.62       4.96      18.55
C       4.74       5.17      11.53
C       4.47       6.20      17.91
C       4.95       3.94      12.18
C       4.49       6.27      16.49
C       4.95       3.88      13.59
C       4.73       5.07      15.75
C       4.76       5.09      14.33
C       4.95       3.85      16.43
C       4.58       6.32      13.65
C       4.30       7.49      15.78
C       5.16       2.67      14.31
C       3.77       1.72      18.47
C       3.17       8.07      11.27
C       4.35       7.38      18.74
C       5.21       2.77      11.35
C       2.59       9.00      16.52
C       4.03       0.69      13.53
N       4.96       2.55      18.53
N       4.51       7.59      11.53
N       4.26       8.32      19.41
N       5.41       1.85      10.69
N       4.00       8.71      16.43
N       5.28       1.41      13.66
O       3.57       5.21       9.47
O       5.75       4.88      20.61
O       3.44       4.88      20.61
O       5.88       5.21       9.47
