20

Zn       5.28       5.36       5.13
Zn       8.25       4.90       5.60
H       3.02       5.83       3.84
H       0.33       3.75       6.39
C       7.04       5.06       2.86
C       6.49       5.17       7.87
C       0.91       5.37       5.34
C       2.38       5.24       5.65
C       7.18       7.63       5.56
C       6.33       2.62       5.26
N       0.00       4.60       5.92
N       3.30       5.67       4.82
O       5.84       5.26       3.30
O       7.69       5.01       7.44
O       8.06       4.92       3.65
O       5.47       5.35       7.08
O       6.02       7.21       5.19
O       7.51       3.06       5.54
O       8.25       6.86       5.54
O       5.28       3.41       5.19
