170

Eu       6.65      10.09      14.83
Eu       0.35       0.57       5.99
Eu       4.70       6.45      14.73
Eu       6.77      14.90      14.72
Eu       1.40      12.58       5.78
Eu       4.81       1.64      14.82
Eu      11.05       8.99       5.97
Eu      10.06       4.14       5.78
H       8.51      15.52       0.11
H       7.02       3.29      11.39
H       9.70      15.86       2.48
H       4.94      12.51      13.99
H       6.52       4.05      13.99
H       8.15       3.52       8.99
H      10.14       8.72       9.63
H       8.90       9.04      11.98
H       4.43      11.74      11.41
H       4.54      13.18       0.37
H       2.67       1.46       3.11
H       4.89      12.50      15.53
H       2.53       0.59      11.98
H       3.34      11.98       9.00
H       1.28       0.28       9.64
H       3.91       1.71       0.75
H       7.92       4.55       2.81
H       3.50      13.01       2.82
H      10.37      14.46       9.05
H       1.05       6.01       9.07
H       1.75       7.40       2.49
H       8.76       9.91       3.10
H       9.33      14.70      11.49
H       2.92       7.07       0.11
H       2.11       6.26      11.51
H       6.57       4.04      15.53
H       6.88       4.72       0.36
H       7.52      10.17       0.75
C       0.86       3.59       3.86
C       8.84      10.76       2.42
C       2.12      14.97       7.99
C       3.35       3.94      12.67
C       1.76       3.95       9.09
C       8.05       5.38       2.13
C       2.59       2.31       2.43
C       7.47       0.84      12.85
C       3.26      11.10       9.64
C       3.37       4.13      17.00
C       2.37       8.13       1.98
C       3.91      13.93       0.84
C       3.37      13.84       2.13
C       8.94       1.51       9.29
C       9.07      16.59       1.97
C       9.32       6.49       8.01
C       9.36       8.08      10.03
C       7.74       7.27      11.49
C       9.24       1.46       3.83
C       7.87       6.66       0.19
C       2.09      16.54      10.03
C       2.74      16.70      11.27
C       9.68      11.84       2.70
C       4.08      15.72      16.71
C       6.84       7.12      12.66
C       1.57       5.23       9.62
C      10.58      12.02       3.86
C       8.11      12.40      12.66
C       3.57      15.12       0.20
C       9.31      13.80      10.88
C       3.72       9.08       0.34
C       8.54      12.08       0.53
C       2.17       9.90       3.83
C       7.63       2.54      10.91
C       7.91       1.31      11.51
C       8.09      12.58      16.99
C       9.70      12.38       9.08
C       1.76       3.39       2.70
C       8.72      12.63      11.33
C       8.71       8.24      11.27
C       8.21       2.65       9.63
C       2.54       9.97       9.27
C       1.80       9.74       8.02
C       6.93       0.95      16.92
C       4.52       9.40      16.93
C       2.89       3.62       0.53
C       2.09      15.27       3.83
C       8.46      16.41       0.72
C       8.19      10.90       1.19
C       9.70       1.24       8.07
C       3.82      10.98      10.92
C       8.80       6.51       2.47
C       3.98       9.26      12.84
C       2.98       7.96       0.72
C       4.62      15.59      12.63
C       2.66       9.38       2.54
C       3.24       2.44       1.20
C       7.70       0.63       0.33
C       7.39       7.27      16.70
C       7.52       5.47       0.83
C       8.86       6.98       9.32
C       2.63      14.98       2.48
C       1.21       3.42       7.82
C       2.13       5.36      10.89
C       2.75       4.19      11.34
C       3.72      15.73      11.47
C       3.53       9.75      11.52
C      10.25      11.84       7.82
C       2.58      15.45       9.31
C       8.77       0.93       2.53
C       9.36       6.82       3.80
C       9.87      13.67       9.59
S       2.67       2.93      10.16
S       7.62       6.16      10.18
S       3.68      10.33       1.53
S       8.87       7.65       1.18
S       2.56       8.76      10.49
S       9.67      13.02       1.43
S       3.82      14.61      10.16
S       2.57      16.12       1.19
S       1.77       4.57       1.43
S       8.83      11.36      10.17
S       7.75       1.88       1.52
S       8.89       0.31      10.52
O       5.51      12.50      14.78
O       7.86      13.80      16.71
O       7.97      11.60      16.19
O       1.76      10.69       7.16
O       5.13      10.51      16.76
O       2.37      13.75       7.70
O       1.21       8.63       7.84
O       3.80       2.78      12.90
O       1.34       2.18       7.57
O      10.76      11.03       4.66
O      10.10      10.59       7.57
O       6.88       1.71      13.57
O       4.71      14.87      16.00
O       9.98       7.30       7.27
O       2.38      11.13       4.12
O       9.79       2.14       7.15
O       0.28       4.71       3.98
O       8.11      13.38      13.47
O       9.02       2.68       4.12
O       6.88      16.88      16.09
O       7.64      11.24      12.91
O       6.16       6.04      12.75
O       9.06       5.28       7.70
O       4.60      10.11      13.57
O      10.85      12.68       7.08
O       0.67       2.60       4.66
O       6.33       2.06      16.75
O       0.63       4.28       7.08
O       6.75       6.41      16.00
O       5.27      14.50      12.76
O       1.43      16.34       4.04
O       3.87      16.94      16.40
O       2.39      14.41       4.72
O       7.73      16.53      13.16
O       9.85       0.63       4.59
O       9.07       5.98       4.72
O      11.17      13.14       3.99
O       5.94       4.06      14.78
O       4.73      16.58      13.43
O       3.60       5.35      16.73
O       6.78       8.07      13.50
O       1.56       9.07       4.59
O      10.30       0.12       7.96
O       3.72       8.06      13.16
O       3.35       4.91      13.49
O       4.59       8.43      16.10
O       7.60       8.49      16.41
O       3.49       3.15      16.19
O      10.02       7.89       3.98
O       1.51      15.79       7.23
