12

N       2.49       0.38      17.77
C       1.54      -0.22      16.95
Cd       4.69      -0.15      18.25
N       4.34      -0.76      20.44
O       6.48       1.21      18.34
C       1.97       1.54      18.16
C       4.92      -2.30      16.59
C       3.62      -0.06      21.39
C       4.74      -1.89      21.00
C       5.90       2.28      18.78
O       5.01      -2.52      17.84
O       4.87      -1.12      16.10
