26

H       7.15       7.18       5.98
H       5.86       6.53       8.02
H       2.69       9.15       6.67
H       4.10       9.67       4.66
H      -1.70       7.21      13.52
H      -0.40       7.86      11.49
H       2.76       5.24      12.84
H       1.35       4.72      14.85
C       6.16       7.59       6.17
C       5.44       7.23       7.30
C       4.17       7.80       7.50
C       3.67       8.69       6.54
C       4.45       8.98       5.43
C       3.40       7.47       8.70
C      -0.71       6.80      13.34
C       0.01       7.16      12.21
C       1.28       6.59      12.01
C       1.78       5.70      12.97
C       1.00       5.41      14.08
C       2.06       6.92      10.81
N       5.68       8.46       5.25
N       3.67       6.30       9.31
N       2.47       8.38       9.11
N      -0.23       5.93      14.25
N       1.79       8.09      10.20
N       2.98       6.01      10.40
