1088

H       4.49      16.77      48.69
H       7.23      14.06      48.42
H       4.88      17.29      43.78
H       7.39      14.22      53.38
H       8.31      16.51      46.98
H       6.82      17.79      50.29
H      15.08      21.33      20.87
H      12.34      24.04      20.60
H      14.69      20.81      15.97
H      12.18      23.88      25.57
H      11.26      21.59      19.17
H      12.75      20.31      22.48
H      31.81      34.06       7.37
H      34.63      36.75       6.81
H      31.73      33.63       2.58
H      34.48      37.20      11.73
H      32.34      37.62       5.21
H      30.89      36.48       8.69
H      27.32       4.03      35.19
H      24.49       1.35      34.62
H      27.40       4.47      30.40
H      24.64       0.90      39.54
H      26.78       0.48      33.02
H      28.23       1.61      36.50
H      14.88      16.61      34.55
H      12.11      13.90      34.92
H      14.78      16.85      39.51
H      11.63      14.14      30.00
H      11.17      16.26      36.47
H      12.48      17.66      33.09
H       4.69      21.48       6.74
H       7.45      24.20       7.12
H       4.79      21.25      11.70
H       7.94      23.96       2.19
H       8.40      21.84       8.66
H       7.09      20.44       5.27
H      27.12      34.13      20.40
H      24.21      36.80      20.86
H      27.07      33.66      25.21
H      24.61      37.56      16.01
H      26.38      37.65      22.57
H      28.04      36.62      19.17
H      32.00       3.96      48.21
H      34.92       1.30      48.67
H      32.05       4.44      53.02
H      34.51       0.54      43.82
H      32.74       0.45      50.38
H      31.08       1.47      46.98
H      34.26      21.30       6.24
H      31.64      24.09       6.83
H      34.68      21.19      11.02
H      31.13      24.01       1.92
H      30.69      21.74       8.40
H      31.77      20.36       4.91
H      24.86      16.81      34.05
H      27.48      14.01      34.64
H      24.44      16.91      38.83
H      27.99      14.09      29.73
H      28.43      16.36      36.21
H      27.36      17.74      32.73
H       7.78       4.20      48.11
H       5.24       1.31      48.84
H       8.24       4.33      52.88
H       4.58       1.14      44.08
H       7.77       0.48      50.04
H       8.67       1.90      46.52
H      11.79      33.90      20.30
H      14.33      36.79      21.03
H      11.33      33.77      25.07
H      14.99      36.96      16.27
H      11.79      37.62      22.23
H      10.89      36.20      18.70
H      24.97      21.51      21.10
H      27.55      24.40      20.65
H      24.36      21.60      16.32
H      28.42      23.88      25.46
H      28.43      22.21      18.85
H      27.55      20.51      22.21
H      34.16      16.60      48.92
H      31.58      13.70      48.46
H      34.76      16.50      44.13
H      30.70      14.22      53.27
H      30.69      15.89      46.66
H      31.57      17.59      50.02
H      11.82       3.90      34.90
H      14.61       1.22      34.09
H      11.60       4.58      30.15
H      14.88       0.80      38.85
H      12.27       0.45      32.56
H      10.96       1.44      36.14
H       7.75      34.21       7.10
H       4.96      36.88       6.28
H       7.98      33.52       2.34
H       4.69      37.30      11.04
H       7.30      37.64       4.74
H       8.61      36.67       8.33
H       7.27      19.33      43.98
H      11.11      15.03      38.66
H      12.37      18.97      39.48
H       8.42      15.34      44.71
H       7.71      15.64      39.92
H       8.20      20.17      40.01
H      12.30      18.76      16.17
H       8.45      23.07      10.84
H       7.20      19.13      11.67
H      11.15      22.75      16.90
H      11.86      22.46      12.10
H      11.37      17.93      12.20
H      29.66      36.26       2.21
H      34.02       0.61      52.55
H      30.01       1.66      53.32
H      33.63      37.45       3.03
H      33.60      36.77      53.73
H      28.99      37.06      53.77
H      29.46       1.84      30.02
H      25.11      37.49      24.74
H      29.12      36.44      25.51
H      25.50       0.65      30.84
H      25.52       1.34      25.92
H      30.14       1.05      25.95
H      32.06      19.10      11.41
H      28.22      23.51      16.68
H      27.12      19.50      15.95
H      30.88      23.05      10.55
H      31.59      23.07      15.48
H      31.27      18.46      15.49
H      27.06      19.01      39.22
H      30.91      14.60      44.49
H      32.00      18.60      43.76
H      28.24      15.05      38.36
H      27.54      15.03      43.29
H      27.85      19.64      43.30
H      10.43       1.81      53.09
H       6.05      37.28       2.56
H      10.11      36.33       1.99
H       6.52       0.51      52.19
H       6.40       1.09       1.46
H      11.09       0.92       1.51
H       9.13      36.29      25.28
H      13.52       0.82      30.37
H       9.46       1.77      29.80
H      13.05      37.58      24.38
H      13.17      37.00      29.27
H       8.48      37.18      29.32
H      27.00       0.01      16.26
H      30.85      35.32      10.88
H      32.04      39.28      11.67
H      28.17      35.57      16.90
H      27.44      35.88      12.12
H      27.88       0.92      12.29
H      32.12      38.08      44.07
H      28.28       2.78      38.69
H      27.08      38.37      39.48
H      30.95       2.53      44.71
H      31.68       2.22      39.93
H      31.24      37.18      40.10
H       9.63      16.57      30.13
H      13.98      20.21      24.68
H      10.05      21.50      25.51
H      13.65      17.65      30.81
H      13.37      16.83      25.98
H       8.81      17.35      26.12
H       9.94      21.54       2.32
H       5.59      17.89      52.49
H       9.52      16.60      53.32
H       5.92      20.45       2.99
H       6.20      21.27      53.79
H      10.76      20.76      53.93
H      12.30      38.26      39.13
H       8.36       3.13      44.33
H       7.39      38.63      43.73
H      11.09       2.67      38.30
H      11.72       2.77      43.19
H      11.50      37.61      43.20
H       7.28      39.39      11.32
H      11.21      34.97      16.52
H      12.18      39.03      15.91
H       8.48      35.44      10.49
H       7.84      35.33      15.38
H       8.07       0.49      15.38
H      30.48      21.54      25.16
H      26.20      17.76      30.52
H      30.14      16.48      29.78
H      26.51      20.31      24.47
H      26.83      21.13      29.21
H      31.36      20.66      29.12
H      28.64      16.56      52.97
H      32.93      20.34       2.71
H      28.98      21.62       1.97
H      32.62      17.79      52.28
H      32.30      16.97       1.40
H      27.77      17.44       1.31
H      10.60       5.84      50.72
H       6.41      12.27      51.92
H       9.56      12.58      49.14
H       6.53       5.98      49.65
H       7.81       8.95      53.41
H      11.53       9.49      52.49
H       8.96      32.26      22.91
H      13.16      25.83      24.10
H      10.01      25.52      21.32
H      13.04      32.12      21.83
H      11.77      29.14      25.59
H       8.05      28.60      24.67
H       3.43       0.23       8.88
H      36.37      36.03      10.25
H      36.15      39.16       7.44
H       3.02      35.74       7.76
H       0.28      37.19      11.59
H      39.45       1.35      10.73
H      16.14      37.87      36.69
H      22.76       2.07      38.06
H      22.98      38.49      35.25
H      16.55       2.36      35.57
H      19.30       0.91      39.40
H      19.67      36.75      38.54
H       9.04       5.60      32.27
H      12.75      12.22      31.38
H       9.73      12.41      34.32
H      12.99       5.97      33.68
H      11.42       8.90      29.90
H       7.95       9.15      30.59
H      10.53      32.50       4.47
H       6.82      25.88       3.57
H       9.83      25.69       6.51
H       6.58      32.13       5.88
H       8.15      29.21       2.10
H      11.62      28.95       2.79
H      15.87       0.08      18.40
H      22.67      36.29      17.31
H      22.72      39.24      20.32
H      16.48      35.68      19.74
H      19.23      37.46      15.91
H      19.33       1.37      16.66
H       3.70      38.02      46.21
H      36.45       1.80      45.12
H      36.40      38.41      48.13
H       3.09       2.42      47.56
H       0.34       0.64      43.72
H       0.24      36.73      44.47
H      29.02      32.60       4.66
H      32.40      25.82       3.40
H      29.29      25.71       6.24
H      32.98      31.99       5.99
H      31.39      29.32       2.09
H      27.78      29.13       2.82
H      30.10       5.50      32.48
H      26.72      12.28      31.22
H      29.83      12.39      34.05
H      26.15       6.11      33.80
H      27.73       8.78      29.91
H      31.34       8.97      30.64
H      29.91      32.83      23.12
H      27.03      25.79      24.24
H      29.94      25.98      21.20
H      26.00      31.95      21.81
H      27.99      29.27      25.70
H      31.43      29.45      24.89
H      29.21       5.27      50.93
H      32.09      12.31      52.05
H      29.19      12.12      49.00
H      33.12       6.15      49.62
H      31.14       8.83      53.50
H      27.70       8.66      52.70
H      23.29      19.55      36.76
H      16.69      15.81      38.03
H      16.41      18.91      35.18
H      22.86      15.57      35.44
H      20.12      17.06      39.36
H      19.79      20.63      38.63
H      35.83      18.55       8.95
H       2.88      22.28      10.22
H       3.16      19.19       7.37
H      36.27      22.53       7.63
H      39.01      21.04      11.55
H      39.33      17.47      10.82
H      35.62      19.31      46.18
H       2.94      16.13      45.08
H       2.96      19.07      48.10
H      36.34      15.41      47.61
H      39.06      17.26      43.67
H      39.01      20.66      44.37
H      23.50      18.79      18.37
H      16.63      21.97      17.27
H      16.61      19.02      20.28
H      22.78      22.69      19.79
H      20.07      20.85      15.86
H      20.12      17.44      16.56
C       6.47      16.58      48.00
C       5.12      16.94      47.89
C       4.59      17.44      46.68
C       5.45      17.60      45.57
C       6.83      17.28      45.67
C       7.32      16.76      46.89
C       6.97      16.01      49.19
C       7.06      16.80      50.35
C       7.48      16.25      51.58
C       7.80      14.86      51.64
C       7.74      14.06      50.47
C       7.33      14.64      49.25
C      13.10      21.52      20.18
C      14.45      21.15      20.08
C      14.98      20.65      18.87
C      14.12      20.49      17.75
C      12.74      20.81      17.86
C      12.25      21.33      19.08
C      12.60      22.09      21.38
C      12.51      21.30      22.54
C      12.09      21.86      23.77
C      11.77      23.24      23.83
C      11.84      24.04      22.66
C      12.24      23.45      21.44
C      32.14      35.93       6.45
C      31.72      34.58       6.49
C      31.26      33.93       5.33
C      31.21      34.64       4.11
C      31.60      36.00       4.05
C      32.06      36.63       5.23
C      32.68      36.56       7.59
C      31.88      36.74       8.73
C      32.43      37.23       9.94
C      33.81      37.55       9.99
C      34.62      37.42       8.82
C      34.04      36.93       7.63
C      26.99       2.16      34.26
C      27.40       3.51      34.31
C      27.87       4.17      33.15
C      27.91       3.46      31.92
C      27.53       2.10      31.86
C      27.07       1.47      33.04
C      26.45       1.54      35.40
C      27.24       1.36      36.54
C      26.69       0.87      37.75
C      25.31       0.55      37.79
C      24.51       0.68      36.63
C      25.08       1.17      35.44
C      12.94      16.38      35.35
C      14.30      16.74      35.39
C      14.91      17.16      36.60
C      14.12      17.25      37.77
C      12.73      16.93      37.73
C      12.16      16.49      36.51
C      12.36      15.86      34.17
C      12.20      16.67      33.03
C      11.67      16.15      31.83
C      11.32      14.78      31.77
C      11.45      13.95      32.91
C      11.96      14.51      34.11
C       6.63      21.71       7.54
C       5.27      21.36       7.58
C       4.66      20.93       8.78
C       5.45      20.85       9.96
C       6.84      21.17       9.92
C       7.40      21.60       8.70
C       7.21      22.24       6.36
C       7.36      21.43       5.22
C       7.89      21.95       4.02
C       8.24      23.32       3.96
C       8.11      24.15       5.10
C       7.61      23.59       6.30
C      26.68      35.98      21.33
C      27.14      34.65      21.29
C      27.58      34.00      22.46
C      27.56      34.70      23.70
C      27.11      36.05      23.75
C      26.68      36.67      22.55
C      26.19      36.63      20.17
C      27.05      36.88      19.09
C      26.57      37.47      17.90
C      25.19      37.80      17.80
C      24.33      37.59      18.90
C      24.84      37.01      20.09
C      32.44       2.12      49.14
C      31.98       3.45      49.10
C      31.54       4.10      50.27
C      31.56       3.40      51.51
C      32.01       2.06      51.56
C      32.44       1.43      50.37
C      32.93       1.47      47.99
C      32.07       1.21      46.90
C      32.55       0.62      45.71
C      33.93       0.30      45.61
C      34.79       0.50      46.72
C      34.28       1.08      47.90
C      32.38      21.57       7.16
C      33.74      21.19       7.11
C      34.41      20.73       8.27
C      33.69      20.66       9.50
C      32.32      21.02       9.55
C      31.68      21.47       8.37
C      31.76      22.14       6.03
C      31.54      21.36       4.88
C      31.05      21.94       3.69
C      30.78      23.33       3.66
C      30.95      24.12       4.83
C      31.44      23.51       6.00
C      26.74      16.53      34.97
C      25.38      16.92      34.92
C      24.72      17.38      36.08
C      25.43      17.45      37.31
C      26.80      17.09      37.36
C      27.44      16.64      36.18
C      27.36      15.96      33.84
C      27.58      16.74      32.69
C      28.07      16.16      31.50
C      28.35      14.76      31.47
C      28.17      13.98      32.64
C      27.68      14.58      33.82
C       7.72       2.25      48.92
C       8.01       3.63      48.94
C       8.52       4.26      50.10
C       8.74       3.47      51.26
C       8.48       2.08      51.25
C       7.99       1.48      50.06
C       7.05       1.67      47.83
C       7.70       1.60      46.58
C       7.02       1.12      45.44
C       5.68       0.69      45.56
C       5.02       0.73      46.82
C       5.72       1.22      47.94
C      11.85      35.85      21.11
C      11.55      34.47      21.12
C      11.05      33.84      22.28
C      10.83      34.63      23.45
C      11.09      36.02      23.44
C      11.58      36.62      22.25
C      12.51      36.43      20.02
C      11.87      36.50      18.77
C      12.55      36.98      17.63
C      13.89      37.41      17.75
C      14.55      37.37      19.01
C      13.85      36.88      20.13
C      26.79      21.92      20.13
C      25.45      21.49      20.20
C      24.76      21.06      19.04
C      25.43      21.08      17.79
C      26.78      21.51      17.71
C      27.45      21.92      18.89
C      27.48      22.39      21.27
C      27.79      21.50      22.31
C      28.38      21.96      23.51
C      28.66      23.35      23.65
C      28.40      24.24      22.58
C      27.81      23.75      21.40
C      32.33      16.18      47.94
C      33.67      16.62      48.01
C      34.36      17.04      46.85
C      33.69      17.02      45.60
C      32.34      16.59      45.52
C      31.68      16.18      46.70
C      31.65      15.71      49.08
C      31.33      16.60      50.12
C      30.74      16.13      51.32
C      30.46      14.75      51.46
C      30.72      13.85      50.39
C      31.31      14.35      49.21
C      12.11       2.08      33.88
C      11.71       3.42      34.00
C      11.22       4.14      32.89
C      11.13       3.49      31.63
C      11.52       2.13      31.50
C      11.99       1.44      32.64
C      12.70       1.39      34.96
C      11.96       1.17      36.13
C      12.57       0.67      37.30
C      13.95       0.34      37.27
C      14.70       0.50      36.07
C      14.06       1.03      34.93
C       7.46      36.02       6.07
C       7.87      34.68       6.19
C       8.35      33.96       5.08
C       8.44      34.61       3.82
C       8.05      35.96       3.69
C       7.58      36.66       4.82
C       6.87      36.71       7.15
C       7.62      36.93       8.32
C       7.01      37.44       9.49
C       5.63      37.77       9.46
C       4.87      37.61       8.26
C       5.51      37.07       7.12
C       7.71      17.34      44.55
C       8.46      16.21      44.18
C       9.32      17.31      42.23
C       8.61      18.50      42.57
C       7.81      18.49      43.73
C      10.15      17.14      41.09
C      10.19      15.94      40.32
C      11.08      15.88      39.23
C      11.91      16.98      38.89
C      11.82      18.13      39.69
C       9.32      14.87      40.54
C       8.58      19.63      41.77
C      11.87      20.75      16.74
C      11.11      21.88      16.37
C      10.25      20.78      14.42
C      10.96      19.60      14.75
C      11.76      19.60      15.92
C       9.43      20.96      13.28
C       9.38      22.16      12.51
C       8.49      22.22      11.42
C       7.66      21.12      11.08
C       7.75      19.97      11.88
C      10.25      23.22      12.73
C      10.99      18.46      13.96
C      31.63      36.73       2.83
C      32.78      37.45       2.46
C      31.75      38.23       0.45
C      30.55      37.51       0.76
C      30.52      36.77       1.96
C      31.92      39.08      54.95
C      33.14      39.20      54.22
C      33.17       0.54      53.12
C      32.03       1.30      52.76
C      30.87       1.17      53.55
C      34.24      38.39      54.45
C      29.45      37.45      55.55
C      27.50       1.37      30.64
C      26.35       0.65      30.27
C      27.38      39.42      28.26
C      28.57       0.59      28.57
C      28.61       1.33      29.77
C      27.20      38.58      27.13
C      25.99      38.45      26.40
C      25.96      37.56      25.31
C      27.09      36.80      24.95
C      28.25      36.93      25.74
C      24.89      39.27      26.64
C      29.67       0.66      27.73
C      31.60      21.05      10.77
C      30.88      22.21      11.14
C      30.09      21.20      13.15
C      30.81      20.00      12.86
C      31.55      19.95      11.65
C      29.25      21.39      14.28
C      29.15      22.61      15.01
C      28.27      22.65      16.11
C      27.51      21.52      16.49
C      27.62      20.36      15.70
C      29.96      23.71      14.75
C      30.88      18.91      13.70
C      27.53      17.05      38.58
C      28.25      15.89      38.95
C      29.03      16.90      40.97
C      28.31      18.10      40.67
C      27.57      18.15      39.47
C      29.87      16.71      42.09
C      29.98      15.49      42.82
C      30.86      15.45      43.92
C      31.62      16.58      44.30
C      31.50      17.74      43.52
C      29.16      14.40      42.56
C      28.24      19.19      41.51
C       8.49       1.29      52.43
C       7.36       0.52      52.77
C       8.41      39.25      54.76
C       9.57       0.46      54.48
C       9.60       1.26      53.31
C       8.21      38.39       0.25
C       6.97      38.24       0.93
C       6.92      37.36       2.02
C       8.06      36.65       2.45
C       9.25      36.80       1.71
C       5.85      39.03       0.65
C      10.66       0.54      55.33
C      11.07      36.81      24.62
C      12.20      37.58      24.96
C      11.16      38.40      26.95
C       9.99      37.63      26.67
C       9.97      36.84      25.50
C      11.35      39.26      28.06
C      12.60      39.41      28.74
C      12.65       0.73      29.84
C      11.51       1.45      30.26
C      10.32       1.30      29.52
C      13.71      38.62      28.46
C       8.91      37.56      27.52
C      27.45      37.57      16.78
C      28.21      36.45      16.39
C      29.05      37.59      14.45
C      28.33      38.77      14.81
C      27.54      38.73      15.99
C      29.85      37.43      13.30
C      29.91      36.22      12.54
C      30.80      36.17      11.44
C      31.60      37.28      11.09
C      31.50      38.44      11.88
C      29.06      35.15      12.76
C      28.29       0.36      14.04
C      31.67       0.53      44.59
C      30.91       1.64      44.20
C      30.08       0.51      42.27
C      30.79      38.88      42.63
C      31.58      38.91      43.80
C      29.27       0.67      41.11
C      29.21       1.87      40.35
C      28.33       1.92      39.25
C      27.52       0.81      38.90
C      27.62      39.21      39.70
C      30.06       2.95      40.57
C      30.83      37.74      41.85
C      11.63      16.98      30.68
C      12.78      17.69      30.27
C      11.69      18.49      28.29
C      10.49      17.82      28.66
C      10.48      17.07      29.86
C      11.87      19.28      27.13
C      13.07      19.31      26.36
C      13.13      20.19      25.25
C      12.04      21.02      24.91
C      10.88      20.94      25.72
C      14.13      18.44      26.59
C       9.36      17.78      27.87
C       7.94      21.12       2.86
C       6.79      20.41       2.46
C       7.88      19.62       0.48
C       9.08      20.29       0.84
C       9.09      21.03       2.05
C       7.70      18.82      54.94
C       6.50      18.79      54.17
C       6.44      17.92      53.06
C       7.54      17.08      52.72
C       8.69      17.16      53.53
C       5.44      19.66      54.40
C      10.21      20.33       0.05
C      11.82       0.67      38.50
C      11.09       1.82      38.87
C      10.29       0.78      40.87
C      11.02      39.15      40.57
C      11.78      39.11      39.38
C       9.45       0.98      42.00
C       9.31       2.21      42.69
C       8.44       2.26      43.79
C       7.72       1.12      44.21
C       7.86      39.49      43.45
C      10.10       3.33      42.41
C      11.10      38.05      41.41
C       7.75      37.43      10.69
C       8.48      36.28      11.06
C       9.28      37.32      13.06
C       8.55      38.51      12.76
C       7.80      38.55      11.56
C      10.12      37.13      14.18
C      10.26      35.89      14.87
C      11.13      35.84      15.98
C      11.85      36.98      16.40
C      11.71      38.16      15.64
C       9.47      34.77      14.60
C       8.48       0.05      13.60
C      28.50      21.07      24.61
C      27.39      20.28      24.98
C      28.51      19.46      26.93
C      29.69      20.18      26.58
C      29.66      20.98      25.41
C      28.34      18.67      28.10
C      27.13      18.65      28.85
C      27.06      17.78      29.96
C      28.15      16.97      30.34
C      29.31      17.03      29.55
C      26.07      19.51      28.61
C      30.82      20.23      27.37
C      30.63      17.03      52.42
C      31.73      17.82      52.79
C      30.61      18.64      54.74
C      29.43      17.91      54.39
C      29.46      17.11      53.22
C      30.78      19.43       0.28
C      31.99      19.45       1.04
C      32.06      20.31       2.15
C      30.97      21.13       2.52
C      29.81      21.07       1.73
C      33.06      18.58       0.79
C      28.30      17.86      55.18
C       8.58       5.67      50.15
C       7.42       6.43      49.89
C       8.53       8.48      50.42
C       9.75       7.78      50.66
C       9.75       6.37      50.53
C       8.35       9.87      50.57
C       7.33      10.44      51.39
C       7.15      11.84      51.35
C       7.96      12.66      50.53
C       8.96      12.03      49.75
C       6.52       9.70      52.25
C      10.91       8.40      51.09
C      10.99      32.43      22.33
C      12.15      31.67      22.08
C      11.04      29.62      22.61
C       9.82      30.32      22.84
C       9.82      31.73      22.71
C      11.22      28.23      22.76
C      12.24      27.66      23.57
C      12.42      26.26      23.54
C      11.61      25.44      22.72
C      10.62      26.07      21.93
C      13.05      28.40      24.43
C       8.66      29.70      23.27
C       3.46      37.77       8.27
C       2.63      36.66       8.01
C       0.67      37.89       8.59
C       1.44      39.06       8.82
C       2.85      38.97       8.67
C      38.83      37.79       8.79
C      38.23      36.82       9.64
C      36.82      36.74       9.67
C      36.02      37.59       8.87
C      36.68      38.54       8.05
C      38.95      35.97      10.46
C       0.90       0.69       9.28
C      16.11       0.34      36.08
C      16.94       1.45      35.82
C      18.90       0.21      36.40
C      18.13      38.59      36.63
C      16.73      38.68      36.48
C      20.30       0.31      36.60
C      20.90       1.28      37.45
C      22.30       1.36      37.48
C      23.10       0.51      36.68
C      22.45      39.12      35.86
C      20.18       2.14      38.27
C      18.67      37.41      37.10
C      11.02       5.55      33.00
C      12.09       6.37      33.41
C      10.85       8.35      32.93
C       9.72       7.59      32.56
C       9.82       6.18      32.59
C      10.96       9.75      32.79
C      11.92      10.36      31.93
C      12.05      11.77      31.97
C      11.25      12.55      32.83
C      10.32      11.89      33.66
C      12.72       9.65      31.04
C       8.55       8.15      32.07
C       8.55      32.55       5.19
C       7.48      31.73       5.61
C       8.72      29.75       5.13
C       9.86      30.51       4.76
C       9.75      31.92       4.78
C       8.60      28.35       4.99
C       7.65      27.74       4.13
C       7.52      26.34       4.16
C       8.31      25.55       5.03
C       9.24      26.21       5.86
C       6.85      28.45       3.24
C      11.02      29.94       4.27
C      15.94      37.64      19.11
C      16.82      36.61      19.48
C      18.73      37.95      18.96
C      17.90      39.05      18.63
C      16.49      38.87      18.69
C      20.12      37.92      18.79
C      20.77      37.02      17.89
C      22.18      36.96      17.91
C      22.93      37.77      18.79
C      22.23      38.65      19.65
C      20.09      36.19      17.00
C      18.39       0.70      18.14
C       3.63       0.46      46.92
C       2.75       1.49      47.29
C       0.84       0.15      46.77
C       1.67      38.60      46.44
C       3.07      38.78      46.50
C      39.00       0.18      46.60
C      38.35       1.08      45.70
C      36.94       1.13      45.73
C      36.19       0.32      46.61
C      36.89      39.00      47.46
C      39.03       1.91      44.82
C       1.18      37.40      45.95
C      31.01      32.53       5.37
C      32.06      31.64       5.71
C      30.74      29.74       5.11
C      29.62      30.57       4.81
C      29.79      31.97       4.93
C      30.77      28.34       4.91
C      31.70      27.71       4.04
C      31.72      26.30       4.00
C      30.84      25.53       4.79
C      29.93      26.22       5.63
C      32.59      28.40       3.22
C      28.43      30.09       4.30
C      28.11       5.57      33.18
C      27.07       6.45      33.52
C      28.39       8.36      32.93
C      29.50       7.53      32.62
C      29.34       6.13      32.75
C      28.35       9.76      32.73
C      27.42      10.39      31.86
C      27.40      11.80      31.81
C      28.28      12.56      32.61
C      29.19      11.88      33.45
C      26.53       9.70      31.04
C      30.69       8.01      32.12
C      27.92      32.62      22.43
C      26.94      31.67      22.09
C      28.40      29.86      22.64
C      29.45      30.76      22.95
C      29.19      32.15      22.85
C      28.47      28.46      22.80
C      27.63      27.74      23.69
C      27.67      26.33      23.65
C      28.51      25.65      22.74
C      29.33      26.42      21.89
C      26.77      28.34      24.60
C      30.68      30.36      23.43
C      31.20       5.48      50.23
C      32.18       6.43      49.89
C      30.72       8.24      50.45
C      29.67       7.34      50.76
C      29.94       5.95      50.66
C      30.65       9.64      50.61
C      31.49      10.36      51.50
C      31.46      11.77      51.45
C      30.61      12.45      50.55
C      29.79      11.68      49.70
C      32.35       9.75      52.41
C      28.44       7.74      51.23
C      23.31      17.56      36.06
C      22.47      16.48      35.72
C      20.51      17.70      36.33
C      21.29      18.85      36.63
C      22.70      18.76      36.50
C      19.12      17.60      36.54
C      18.54      16.63      37.41
C      17.13      16.53      37.43
C      16.31      17.35      36.63
C      16.95      18.29      35.80
C      19.27      15.80      38.24
C      20.75      20.02      37.13
C      35.81      20.54       8.24
C      36.65      21.63       7.91
C      38.61      20.40       8.52
C      37.83      19.25       8.82
C      36.43      19.35       8.69
C       0.45      20.50       8.73
C       1.03      21.46       9.59
C       2.44      21.57       9.62
C       3.26      20.74       8.82
C       2.62      19.80       7.99
C       0.30      22.30      10.43
C      38.37      18.08       9.32
C      35.75      17.34      46.93
C      36.66      16.34      47.32
C      38.53      17.72      46.75
C      37.67      18.79      46.40
C      36.27      18.58      46.48
C       0.37      17.72      46.56
C       1.03      16.83      45.67
C       2.44      16.79      45.69
C       3.19      17.61      46.57
C       2.47      18.48      47.42
C       0.36      16.00      44.78
C      38.13      19.99      45.89
C      23.38      20.76      19.12
C      22.47      21.76      19.50
C      20.60      20.38      18.93
C      21.46      19.31      18.58
C      22.85      19.52      18.67
C      19.20      20.38      18.75
C      18.54      21.27      17.85
C      17.13      21.30      17.87
C      16.39      20.49      18.76
C      17.10      19.62      19.61
C      19.20      22.10      16.97
C      21.00      18.11      18.08
N       9.22      16.24      43.07
N      10.97      18.16      40.74
N      10.35      21.85      15.26
N       8.60      19.93      12.93
N      32.79      38.16       1.32
N      30.86       0.30      54.59
N      26.34      39.49      29.13
N      28.26      37.80      26.77
N      30.16      22.23      12.28
N      28.47      20.34      14.66
N      28.96      15.87      40.09
N      30.65      17.76      42.47
N       7.37      39.31      53.88
N       9.28      37.65       0.66
N      12.19      38.34      26.07
N      10.29       0.45      28.47
N      28.96      36.51      15.27
N      30.66      38.46      12.94
N      30.16       1.59      43.08
N      28.47      39.18      40.75
N      12.76      18.40      29.13
N      10.85      20.10      26.77
N       6.81      19.70       1.31
N       8.72      18.00      54.58
N      10.36       1.82      40.00
N       8.70      39.47      42.40
N       9.21      36.28      12.19
N      10.87      38.18      14.59
N      27.44      19.53      26.10
N      29.36      17.86      28.48
N      31.68      18.57      53.91
N      29.76      20.24       0.66
N       7.44       7.77      50.05
N       9.11      10.69      49.79
N      12.13      30.33      22.23
N      10.47      27.41      21.98
N       1.30      36.76       8.19
N      38.03      38.60       8.04
N      18.27       1.35      36.00
N      21.09      39.06      35.84
N      11.98       7.71      33.34
N      10.22      10.53      33.62
N       7.59      30.39       5.54
N       9.35      27.57       5.82
N      18.15      36.79      19.37
N      20.87      38.69      19.62
N       1.41       1.31      47.18
N      38.25      38.96      47.43
N      31.89      30.31       5.55
N      29.94      27.58       5.66
N      27.23       7.79      33.36
N      29.18      10.52      33.48
N      27.20      30.35      22.22
N      29.28      27.78      21.94
N      31.92       7.75      50.03
N      29.85      10.32      49.75
N      21.13      16.58      35.89
N      18.31      18.38      35.77
N      37.99      21.52       8.08
N       1.26      19.72       7.96
N      37.99      16.55      47.19
N       1.12      18.49      47.40
N      21.14      21.55      19.37
N      18.46      19.61      19.58
O       4.93      18.06      44.39
O       8.19      14.29      52.82
O      14.64      20.04      16.58
O      11.38      23.81      25.00
O      30.88      33.98       2.96
O      34.39      37.99      11.14
O      28.24       4.12      30.77
O      24.73       0.11      38.95
O      14.70      17.65      38.94
O      10.86      14.23      30.61
O       4.87      20.45      11.13
O       8.71      23.88       2.80
O      27.90      34.06      24.85
O      24.67      38.31      16.64
O      31.22       4.04      52.66
O      34.45      39.34      44.46
O      34.35      20.34      10.65
O      30.35      23.93       2.51
O      24.77      17.76      38.46
O      28.77      14.16      30.32
O       9.08       4.09      52.43
O       4.99       0.32      44.44
O      10.48      34.01      24.62
O      14.58      37.78      16.63
O      24.76      20.76      16.65
O      29.17      23.85      24.82
O      34.37      17.34      44.46
O      29.96      14.25      52.63
O      10.77       4.19      30.52
O      14.58      39.52      38.42
O       8.80      33.90       2.71
O       4.99      38.14      10.61
O       9.79      13.75      40.69
O       8.15      14.90      40.14
O       9.37      20.53      42.05
O       8.16      19.52      40.62
O       9.78      24.34      12.88
O      11.42      23.20      12.33
O      10.20      17.57      14.24
O      11.41      18.57      12.80
O      35.32      38.92      54.65
O      34.30      37.24      54.00
O      28.50      38.18       0.19
O      29.62      37.04      54.39
O      23.80      38.73      26.84
O      24.83       0.86      26.19
O      30.62      39.48      27.99
O      29.51       1.06      26.58
O      29.43      24.79      14.54
O      31.11      23.77      15.21
O      30.14      17.96      13.45
O      31.29      19.09      14.85
O      29.69      13.31      42.35
O      28.01      14.33      43.02
O      28.98      20.14      41.27
O      27.84      19.02      42.67
O       4.80      38.46       0.38
O       5.73       0.60       1.14
O      11.62      39.37      55.09
O      10.47       0.93       0.87
O      14.76      39.19      28.19
O      13.84      37.49      28.95
O       7.95      38.28      27.28
O       9.10      37.16      28.68
O      29.55      34.04      12.92
O      27.89      35.15      12.35
O      29.08       1.25      14.32
O      27.85       0.26      12.89
O      29.57       4.06      40.73
O      31.23       2.95      40.17
O      30.04      36.84      42.13
O      31.27      37.83      40.70
O      15.25      18.92      26.73
O      14.10      17.27      26.20
O       8.46      18.57      28.13
O       9.46      17.32      26.72
O       4.32      19.19      54.54
O       5.47      20.83      54.01
O      11.11      19.54       0.32
O      10.11      20.78      54.53
O       9.54       4.38      42.16
O      11.23       3.44      42.89
O      10.36      37.11      41.17
O      11.51      38.23      42.56
O      10.03      33.72      14.34
O       8.33      34.66      15.07
O       9.21       1.00      13.36
O       8.06      39.43      14.75
O      24.95      19.04      28.45
O      26.09      20.69      28.98
O      31.72      19.44      27.11
O      30.71      20.68      28.52
O      34.17      19.06       0.64
O      33.03      17.41       1.17
O      27.41      18.66      54.92
O      28.41      17.41       0.70
O       5.40       9.42      51.84
O       6.99       8.90      53.07
O      11.69       8.78      50.23
O      10.87       8.98      52.18
O      14.17      28.68      24.02
O      12.58      29.20      25.25
O       7.89      29.31      22.41
O       8.70      29.11      24.36
O      39.13      34.83      10.05
O       0.26      36.37      11.25
O       0.53       1.50       8.44
O       0.36       0.68      10.39
O      19.99       3.27      37.85
O      19.31       1.73      39.06
O      19.04      36.60      36.25
O      19.21      37.42      38.21
O      13.85       9.39      31.41
O      12.25       8.86      30.22
O       7.77       8.61      32.90
O       8.61       8.67      30.95
O       5.72      28.71       3.61
O       7.32      29.25       2.42
O      11.80      29.49       5.09
O      10.96      29.43       3.15
O      19.91      35.04      17.37
O      19.25      36.63      16.22
O      18.80       1.50      18.97
O      18.89       0.68      17.01
O      39.21       3.06      45.18
O       0.32       1.47      44.03
O       0.77      36.60      46.78
O       0.68      37.41      44.82
O      33.72      28.55       3.64
O      32.21      29.28       2.43
O      27.60      29.72       5.12
O      28.46      29.56       3.18
O      25.40       9.55      31.46
O      26.91       8.82      30.25
O      31.53       8.38      32.93
O      30.66       8.54      31.00
O      25.60      28.45      24.26
O      27.16      29.20      25.40
O      31.52      30.02      22.59
O      30.71      29.83      24.55
O      33.52       9.64      52.06
O      31.97       8.89      53.21
O      27.61       8.08      50.40
O      28.41       8.27      52.35
O      19.49      14.67      37.83
O      20.12      16.24      39.02
O      20.32      20.83      36.32
O      20.25      19.97      38.26
O       0.08      23.43      10.02
O      39.00      21.86      11.21
O      38.80      17.27       8.51
O      38.87      18.13      10.45
O       0.18      14.84      45.14
O      39.07      16.43      43.98
O      38.55      20.81      46.70
O      38.59      19.97      44.75
O      19.38      23.26      17.33
O      20.05      21.68      16.17
O      20.57      17.29      18.88
O      20.53      18.13      16.93
