20

C       2.52      11.77       1.30
C       1.70      17.15      -0.22
N       1.62      15.93       0.35
C       0.54      15.63       1.08
N       6.44      11.02      -0.35
O       2.10      12.93       0.98
O       3.64      11.27       0.96
O       4.09      14.87       1.81
O       5.61      13.18       1.79
C       5.05      14.21       2.32
O       4.42      15.69      -0.96
O       5.96      14.02      -0.98
O       3.97      12.09      -1.81
O       2.45      13.77      -1.79
Zn       3.05      14.51       0.05
C       5.54      15.18      -1.30
Zn       5.01      12.44      -0.05
C       6.35       9.81       0.22
C       7.52      11.32      -1.08
C       3.01      12.75      -2.32
