35

O       6.69      10.77       1.35
O       7.85      11.87      -0.27
O      11.02      15.84       2.49
O       9.65      16.73       0.90
O       4.76      16.65       1.84
O       3.84      14.97       2.98
O       8.37      14.09       6.57
O       7.66      12.02       5.97
H       8.36      13.65       7.50
H       8.56      14.20       0.41
H       9.67      13.34       1.50
H       7.23      16.20       1.27
H       7.41      16.74       2.94
H       5.38      13.04       2.04
H       6.06      14.03       0.73
H       8.71      11.90       3.40
H       6.96      11.78       3.61
H       8.99      15.49       4.53
H       9.91      14.10       3.93
H       5.61      13.78       4.45
H       6.45      15.30       4.84
C       7.40      11.77       0.90
C       7.56      12.93       1.86
C       8.70      13.87       1.45
C       8.73      15.10       2.40
C       7.39      15.85       2.29
C       6.24      14.92       2.71
C       6.22      13.70       1.76
C       7.76      12.46       3.31
C       7.80      13.68       4.25
C       8.95      14.62       3.85
C       6.44      14.44       4.16
C       9.90      15.96       1.93
C       4.88      15.57       2.52
C       7.95      13.19       5.68
