560

C       2.85       8.83      17.11
C       3.51       9.93      16.22
C       3.82       8.47      18.29
C       5.21       7.97      17.75
C       5.82       9.10      16.85
C       4.89       9.46      15.64
C       4.65       8.16      14.78
C       4.02       7.02      15.65
C       4.98       6.70      16.85
C       2.66       7.54      16.24
C       1.44       9.27      17.63
C       3.71       5.73      14.80
C       6.21       7.68      18.91
C       5.60      10.58      14.82
C       8.62       6.23      28.96
C       9.28       5.12      29.85
C       9.59       6.58      27.78
C      10.98       7.08      28.33
C       0.05       5.96      29.22
C      10.66       5.60      30.43
C      10.42       6.89       0.27
C       9.79       8.04      30.42
C      10.75       8.35      29.22
C       8.43       7.51      29.83
C       7.21       5.78      28.44
C       9.48       9.32       0.25
C       0.44       7.37      27.16
C      11.38       4.47       0.23
C       5.74      13.45      24.34
C       6.40      14.34      25.45
C       6.71      12.27      23.98
C       8.09      12.82      23.48
C       8.71      13.71      24.61
C       7.78      14.92      24.97
C       7.54      15.78      23.67
C       6.90      14.91      22.53
C       7.87      13.71      22.21
C       5.55      14.32      23.05
C       4.33      12.93      24.79
C       6.59      15.76      21.25
C       9.10      11.65      23.19
C       8.49      15.74      26.09
C      11.51       1.61      21.74
C       0.62       0.71      20.63
C       0.94       2.79      22.09
C       2.32       2.24      22.59
C       2.93       1.34      21.47
C       2.00       0.13      21.11
C       1.77      30.30      22.40
C       1.13       0.15      23.55
C       2.09       1.35      23.86
C      11.32       0.74      23.02
C      10.10       2.12      21.29
C       0.82      30.32      24.83
C       3.32       3.40      22.88
C       2.72      30.33      19.99
C       8.53      24.39       1.56
C       9.34      25.37       0.62
C       9.40      24.07       2.83
C      10.78      23.43       2.44
C      11.53      24.44       1.49
C      10.72      24.75       0.19
C      10.44      23.39      30.47
C       9.66      22.38       0.36
C      10.51      22.10       1.64
C       8.31      23.05       0.78
C       7.12      24.97       1.93
C       9.31      21.07      30.60
C       0.15      23.16       3.70
C       0.01      25.74      30.31
C       2.76      21.67      13.49
C       3.57      20.70      14.43
C       3.63      22.00      12.22
C       5.01      22.64      12.61
C       5.75      21.63      13.56
C       4.94      21.32      14.86
C       4.66      22.68      15.60
C       3.88      23.69      14.69
C       4.73      23.97      13.41
C       2.53      23.01      14.27
C       1.35      21.09      13.11
C       3.52      25.00      15.47
C       5.92      22.91      11.35
C       5.78      20.33      15.76
C      11.42      29.01       8.89
C       0.68      29.94       9.86
C       0.74      27.73       8.56
C       2.12      28.12       7.92
C       2.87      29.07       8.93
C       2.06      30.38       9.24
C       1.78       0.09       7.88
C       1.00      30.20       6.87
C       1.85      28.92       6.59
C      11.19      29.78       7.55
C      10.01      28.62       9.46
C       0.65      30.98       5.56
C       3.03      26.86       7.65
C       2.90       0.25      10.23
C       5.64      17.07       6.17
C       6.45      16.13       5.19
C       6.51      18.34       6.49
C       7.89      17.95       7.13
C       8.63      17.00       6.12
C       7.83      15.70       5.81
C       7.55      14.97       7.18
C       6.77      15.87       8.18
C       7.62      17.15       8.46
C       5.42      16.29       7.51
C       4.23      17.44       5.59
C       6.42      15.09       9.49
C       8.80      19.21       7.40
C       8.67      14.80       4.82
C       7.61       2.23      18.52
C       7.81       3.48      19.27
C       6.87       5.59      19.96
C       8.05       5.88      20.68
C       8.30       7.11      21.46
C       9.01       3.81      19.95
C       1.84      12.82      27.55
C       2.04      11.57      26.80
C       1.10       9.47      26.11
C       2.28       9.17      25.39
C       2.53       7.94      24.61
C       3.24      11.24      26.12
C      10.49      12.03      17.74
C      10.69      11.28      18.99
C       9.76      10.60      21.10
C      10.94       9.88      21.39
C      11.18       9.10      22.62
C       0.35      10.60      19.32
C       4.72       3.02      28.33
C       4.92       3.77      27.08
C       3.99       4.45      24.97
C       5.17       5.18      24.68
C       5.42       5.95      23.45
C       6.12       4.45      26.75
C       1.72      17.69       2.83
C       1.93      18.91       3.63
C       0.99      20.97       4.46
C       2.18      21.23       5.17
C       2.44      22.40       6.02
C       3.14      19.20       4.31
C       7.50      28.38      12.22
C       7.71      27.16      11.42
C       6.76      25.10      10.59
C       7.96      24.85       9.88
C       8.21      23.67       9.03
C       8.92      26.87      10.74
C       4.61      27.73       2.18
C       4.82      26.93       3.40
C       3.87      26.10       5.46
C       5.07      25.39       5.72
C       5.32      24.54       6.89
C       6.03      26.25       3.69
C      10.39      18.33      12.86
C      10.60      19.14      11.64
C       9.65      19.96       9.59
C      10.84      20.68       9.33
C      11.10      21.53       8.16
C       0.27      19.81      11.35
C       1.85       4.61      10.27
C       2.84       3.95      11.15
C       4.36       4.30      12.98
C       4.69       2.92      12.97
C       5.64       2.29      13.91
C       3.16       2.57      11.14
C       7.61      10.44       4.78
C       8.60      11.10       3.90
C      10.13      10.76       2.07
C      10.46      12.14       2.08
C      11.41      12.76       1.14
C       8.92      12.48       3.91
C       4.72      20.29      20.12
C       5.71      19.41      19.46
C       7.24      17.58      19.81
C       7.57      17.59      18.43
C       8.53      16.65      17.80
C       6.04      19.42      18.08
C      10.50      25.79      25.95
C      11.49      26.67      26.62
C       1.47      28.50      26.27
C       1.80      28.49      27.65
C       2.75      29.43      28.28
C       0.27      26.66      28.00
C       7.72      11.70       9.86
C       7.09      12.36      11.02
C       5.62      12.01      12.89
C       5.66      13.40      13.20
C       4.86      14.04      14.26
C       7.13      13.75      11.33
C       1.95       3.36       5.19
C       1.31       2.69       4.03
C      11.39       3.04       2.16
C      11.43       1.66       1.85
C      10.64       1.01       0.79
C       1.36       1.31       3.73
C       4.83      25.37      18.86
C       4.19      26.53      18.20
C       2.73      28.40      18.55
C       2.77      28.71      17.17
C       1.97      29.78      16.53
C       4.23      26.83      16.82
C      10.61      20.70      27.20
C       9.98      19.54      27.87
C       8.51      17.67      27.52
C       8.56      17.36      28.91
C       7.76      16.30      29.55
C      10.02      19.24      29.25
H       3.37       7.70      18.92
H       3.97       9.35      18.92
H       6.00       9.99      17.46
H       6.79       8.77      16.47
H       3.67      10.84      16.80
H       2.82      10.19      15.41
H       5.61       7.83      14.36
H       4.00       8.39      13.94
H       5.94       6.34      16.47
H       4.56       5.89      17.45
H       1.97       7.76      15.42
H       2.20       6.75      16.84
H       1.01       8.43      18.18
H       0.78       9.47      16.78
H       2.84       5.97      14.18
H       3.42       4.92      15.47
H       6.28       8.56      19.55
H       7.20       7.54      18.46
H       5.78      11.43      15.48
H       6.59      10.21      14.52
H       9.14       7.35      27.15
H       9.74       5.70      27.15
H       0.23       5.06      28.61
H       1.02       6.28      29.60
H       9.44       4.21      29.27
H       8.60       4.87      30.67
H      11.38       7.23       0.69
H       9.77       6.66       1.11
H       0.17       8.71      29.60
H      10.32       9.16      28.62
H       7.74       7.29      30.65
H       7.97       8.30      29.23
H       6.78       6.62      27.89
H       6.55       5.58      29.29
H       8.61       9.08       0.87
H       9.18      10.14      30.60
H       0.51       6.49      26.51
H       1.43       7.51      27.61
H       0.01       3.62      30.59
H       0.82       4.85       0.53
H       6.26      11.64      23.21
H       6.86      11.64      24.87
H       8.89      13.10      25.50
H       9.68      14.09      24.28
H       6.56      13.76      26.36
H       5.71      15.16      25.70
H       8.49      16.20      23.34
H       6.88      16.62      23.90
H       8.83      14.09      21.85
H       7.44      13.11      21.41
H       4.85      15.14      23.28
H       5.08      13.72      22.26
H       3.90      12.38      23.95
H       3.67      13.78      24.99
H       5.72      16.38      21.48
H       6.30      15.09      20.43
H       9.17      11.01      24.07
H      10.09      12.10      23.05
H       8.67      15.08      26.95
H       9.48      16.04      25.72
H       0.49       3.42      22.86
H       1.09       3.42      21.21
H       3.11       1.95      20.57
H       3.91       0.96      21.79
H       0.78       1.29      19.72
H      11.48      30.92      20.38
H       2.72      29.88      22.74
H       1.11      29.45      22.18
H       3.06       0.97      24.22
H       1.67       1.95      24.67
H      10.62      30.94      22.80
H      10.86       1.34      23.81
H       9.67       2.68      22.13
H       9.44       1.28      21.09
H      11.49      29.70      24.60
H       0.53      30.99      25.65
H       3.39       4.05      22.00
H       4.32       2.96      23.02
H       2.89      30.99      19.13
H       3.70      30.03      20.36
H       8.85      23.39       3.49
H       9.57      24.99       3.40
H       0.18      25.37       2.03
H       0.95      24.02       1.21
H       9.51      26.32       1.14
H       8.75      25.60      30.74
H      11.40      22.95      30.16
H       9.86      23.57      29.57
H      11.46      21.64       1.37
H       9.97      21.39       2.27
H       7.70      23.25      30.91
H       7.74      22.36       1.41
H       6.56      24.16       2.41
H       6.58      25.25       1.03
H       8.77      21.37      29.69
H       8.61      20.48       0.19
H       0.01      23.98       4.42
H       1.20      23.22       3.39
H      11.41      26.76      30.69
H       1.08      25.52      30.41
H       3.08      22.68      11.56
H       3.80      21.08      11.65
H       5.96      20.70      13.02
H       6.72      22.06      13.84
H       3.74      19.75      13.91
H       2.98      20.47      15.32
H       5.62      23.12      15.91
H       4.08      22.50      16.50
H       5.68      24.43      13.68
H       4.19      24.68      12.78
H       1.92      22.81      15.16
H       1.96      23.70      13.64
H       0.78      21.90      12.64
H       0.81      20.81      14.02
H       2.98      24.70      16.37
H       2.82      25.58      14.86
H       5.79      22.09      10.63
H       6.97      22.86      11.66
H       5.64      19.31      15.39
H       6.85      20.55      15.66
H       0.19      27.07       7.88
H       0.91      27.17       9.48
H       3.07      28.53       9.86
H       3.84      29.35       8.50
H       0.85      29.42      10.81
H       0.09      30.84      10.09
H       2.74       0.40       7.44
H       1.19       0.99       8.05
H       2.80      29.19       6.13
H       1.31      28.29       5.88
H      10.58      30.67       7.74
H      10.62      29.15       6.85
H       9.44      28.15       8.65
H       9.46      29.53       9.74
H       0.10       0.86       5.86
H      11.49      30.37       4.97
H       2.90      26.14       8.47
H       4.08      27.17       7.70
H       2.75      30.90      11.25
H       3.97       0.15      10.01
H       5.96      19.00       7.17
H       6.68      18.91       5.57
H       8.84      17.54       5.19
H       9.61      16.73       6.55
H       6.62      16.65       4.25
H       5.86      15.23       4.96
H       8.50      14.66       7.61
H       6.96      14.06       7.00
H       8.57      16.88       8.92
H       7.08      17.78       9.17
H       4.81      15.40       7.31
H       4.85      16.92       8.20
H       3.66      17.92       6.40
H       3.69      16.54       5.31
H       5.87      14.19       9.19
H       5.71      15.70      10.08
H       8.66      19.93       6.58
H       9.85      18.91       7.34
H       8.52      15.17       3.80
H       9.74      14.90       5.04
H       6.61       2.19      18.08
H       7.72       1.37      19.19
H       8.34       2.15      17.72
H       9.06       7.70      20.95
H       8.65       6.85      22.46
H       7.40       7.72      21.57
H       5.36       6.77      20.59
H      10.30       2.45      19.23
H       0.84      12.86      28.00
H       1.95      13.68      26.88
H       2.57      12.90      28.36
H       3.29       7.36      25.12
H       2.88       8.20      23.61
H       1.63       7.33      24.50
H      11.14       8.29      25.48
H       4.54      12.60      26.84
H       9.49      12.48      17.70
H      10.60      11.37      16.88
H      11.23      12.84      17.66
H       0.41       9.61      23.20
H      11.53       8.10      22.36
H      10.29       8.99      23.23
H       8.25       9.97      22.28
H       1.65      11.33      17.96
H       3.72       2.57      28.37
H       4.83       3.68      29.19
H       5.45       2.21      28.41
H       6.18       5.45      22.87
H       5.77       6.95      23.71
H       4.52       6.06      22.84
H       2.48       5.09      23.79
H       7.42       3.72      28.11
H       0.72      17.67       2.41
H       1.84      16.81       3.46
H       2.44      17.65       2.02
H       3.19      23.02       5.54
H       2.81      22.08       7.00
H       1.54      23.00       6.19
H      11.00      21.99       5.29
H       4.46      17.86       3.55
H       6.50      28.40      12.65
H       7.62      29.26      11.59
H       8.22      28.42      13.04
H       8.97      23.05       9.51
H       8.58      23.99       8.05
H       7.32      23.08       8.86
H       5.23      24.09       9.77
H      10.24      28.21      11.51
H       3.61      28.16       2.16
H       4.74      27.10       1.30
H       5.34      28.54       2.15
H       6.08      25.02       7.51
H       5.69      23.56       6.57
H       4.43      24.37       7.49
H       2.34      25.28       6.48
H       7.35      27.01       2.35
H       9.39      17.90      12.89
H      10.52      18.96      13.75
H      11.12      17.52      12.90
H       0.31      21.05       7.54
H      11.47      22.51       8.48
H      10.20      21.70       7.57
H       8.11      20.79       8.58
H       1.59      19.05      12.70
H       1.09       5.10      10.88
H       1.34       3.91       9.60
H       2.35       5.37       9.66
H       6.63       2.74      13.80
H       5.73       1.22      13.73
H       5.29       2.43      14.94
H       5.58       4.92      14.49
H       2.90       2.06       9.28
H       6.85       9.95       4.17
H       7.11      11.14       5.45
H       8.12       9.69       5.39
H       0.85      12.31       1.26
H      11.50      13.84       1.33
H      11.06      12.62       0.12
H      11.35      10.13       0.56
H       8.66      12.99       5.77
H       3.96      19.68      20.61
H       4.22      20.96      19.42
H       5.23      20.90      20.87
H       9.51      16.77      18.26
H       8.62      16.84      16.73
H       8.18      15.63      17.94
H       8.46      16.07      20.43
H       5.78      21.28      17.57
H       9.74      26.40      25.46
H      10.00      25.12      26.65
H      11.00      25.18      25.20
H       3.74      29.31      27.83
H       2.85      29.24      29.35
H       2.41      30.45      28.14
H       2.69      30.01      25.65
H       0.01      24.80      28.50
H       8.39      10.91      10.22
H       8.31      12.37       9.25
H       6.95      11.25       9.23
H       3.80      13.83      14.11
H       4.99      15.12      14.25
H       5.17      13.67      15.24
H       3.96      11.38      13.80
H       8.40      14.50       9.95
H       2.61       4.15       4.83
H       2.53       2.68       5.81
H       1.18       3.80       5.82
H       9.58       1.22       0.94
H      10.77      30.95       0.80
H      10.94       1.38      30.83
H       9.73       3.67       1.25
H       2.63       0.55       5.11
H       5.50      25.73      19.65
H       5.41      24.75      18.19
H       4.06      24.74      19.32
H       0.91      29.63      16.74
H       2.10      29.77      15.45
H       2.28      30.75      16.89
H       1.07      29.31      19.19
H       5.50      25.46      16.06
H      11.27      20.34      26.41
H      11.20      21.32      27.88
H       9.84      21.33      26.76
H       6.70      16.44      29.34
H       7.90      16.30      30.64
H       8.07      15.32      29.19
H       6.85      16.76      26.90
H      11.29      20.62      30.01
N       6.81       4.41      19.29
N       9.06       4.98      20.63
N       5.82       6.49      19.72
N      10.15       2.99      20.09
N       1.04      10.65      26.78
N       3.29      10.07      25.44
N       0.05       8.56      26.36
N       4.38      12.06      25.99
N       9.69      11.27      19.92
N       0.40       9.93      20.49
N       8.71      10.85      22.00
N       1.49      10.47      18.50
N       3.92       3.79      26.15
N       6.18       5.12      25.58
N       2.94       4.21      24.07
N       7.26       4.58      27.57
N       0.92      19.82       3.73
N       3.20      20.33       5.05
N      11.43      21.86       4.37
N       4.27      18.36       4.42
N       6.70      26.25      11.33
N       8.97      25.74      10.00
N       5.66      24.22      10.68
N      10.05      27.71      10.63
N       3.81      26.83       4.31
N       6.09      25.51       4.83
N       2.77      26.19       6.34
N       7.16      26.14       2.85
N       9.59      19.23      10.73
N       0.32      20.56      10.22
N       8.54      19.88       8.71
N       1.40      19.92      12.19
N       3.46       4.73      12.06
N       4.07       2.13      12.05
N       4.81       5.27      13.91
N       2.57       1.70      10.19
N       9.23      10.32       2.99
N       9.84      12.92       3.00
N      10.58       9.78       1.14
N       8.34      13.35       4.86
N       6.34      18.50      20.24
N       6.96      18.51      17.64
N       7.69      16.65      20.78
N       5.45      20.37      17.21
N       0.57      27.58      25.84
N       1.19      27.56      28.44
N       1.92      29.43      25.30
N      11.23      25.70      28.86
N       6.33      11.57      11.83
N       6.39      14.19      12.38
N       4.90      11.03      13.60
N       7.53      14.75      10.42
N       0.56       3.49       3.23
N       0.62       0.86       2.67
N      10.67       4.02       1.45
N       1.76       0.30       4.63
N       3.44      27.34      19.00
N       3.50      27.89      16.37
N       2.01      29.11      19.54
N       4.64      25.93      15.81
N       9.22      18.73      27.08
N       9.29      18.18      29.70
N       7.79      16.96      26.54
N      10.43      20.14      30.26
