32

O       2.58       3.52       1.18
O       0.62       4.29       2.07
O       2.70      -0.06       3.69
O       4.08       1.34       2.50
Ni       3.76       3.34       2.76
Ni       0.38       4.01       4.21
O      -1.04       2.48       3.95
Ni       1.76       0.90       5.36
O      -0.11       0.52       4.65
O       0.07       3.78       6.30
C       3.70       0.19       2.95
O       1.98       2.68       4.24
C      -1.09       1.30       4.39
C       0.58      -1.19       7.05
C       6.48       2.93       1.70
C      -1.28       6.32       3.36
C      -2.28       4.98       4.96
C       5.48       4.92       1.06
H       2.00       2.11       3.43
H       2.98       2.85       4.65
C       4.61       1.86       5.61
C       2.76      -1.66       6.40
C       2.60       6.06       3.69
N       1.69      -0.85       6.35
C       0.21       2.80       7.09
N       5.42       3.77       1.76
N      -1.23       5.25       4.17
O       3.69       1.13       6.08
O       1.58       5.73       4.36
O       3.52       5.29       3.21
O       0.99       1.80       6.98
C       1.50       4.22       1.17
