41

O       3.77       1.24      19.34
O       5.56       2.53      19.87
Zn       5.16       4.51      20.12
O       4.74       6.53      20.27
Zn       2.57       2.82      19.03
O       5.59       7.58      22.10
C      -0.13       2.42      17.92
O       8.20       6.35      20.89
O       7.15       4.80      19.61
C       0.84       0.43      18.65
Zn       6.93       6.06      22.35
C      -1.23       1.73      17.39
C      -1.27       0.34      17.51
C      -0.22      -0.32      18.16
C       5.00       1.42      19.67
O       2.93       3.75      17.31
O       4.74       4.87      18.12
C       4.82       7.51      21.08
O       5.72       4.46      22.31
O       3.09       3.99      20.68
C       8.07       5.64      19.82
H      -0.05       3.50      17.87
H      -2.02       2.28      16.88
H      -2.11      -0.22      17.10
H      -0.22      -1.40      18.27
H       1.70      -0.03      19.13
C       3.90       4.59      17.22
C       7.33       6.58      25.25
C       7.91       7.11      26.39
C       9.08       7.85      26.27
C       9.64       8.03      25.00
C       9.00       7.47      23.90
H       6.41       5.99      25.29
H       7.44       6.94      27.36
H       9.56       8.28      27.15
H      10.55       8.62      24.85
H       9.39       7.59      22.89
C       6.47       3.49      22.84
C       2.04       4.80      20.67
N       0.89       1.77      18.53
N       7.86       6.76      24.02
