28

O       4.96       3.64      11.21
O       2.89       3.19      11.93
O       8.55       1.23      15.79
O       8.40       0.72      13.59
H       4.51       0.46      18.00
H       5.19       2.02      18.52
H       3.60       1.50      19.10
H       1.69       1.87      15.92
H       2.46       0.38      16.50
H       1.61       1.44      17.65
H       2.56       3.67      18.31
H       4.13       4.22      17.69
H       2.72       4.18      16.62
H       6.64       2.28      12.55
H       6.22       1.38      16.72
H       2.91       3.06      14.51
C       4.27       1.51      18.23
C       2.25       1.43      16.76
C       3.22       3.65      17.44
C       4.72       2.77      13.42
C       6.03       2.28      13.45
C       6.55       1.76      14.64
C       5.76       1.76      15.81
C       4.44       2.22      15.79
C       3.94       2.71      14.58
C       4.15       3.25      12.13
C       7.93       1.19      14.68
C       3.56       2.20      17.05
