25

N       8.41      12.95       3.67
N       6.80      14.71       6.46
N       8.61      12.82       5.91
N       9.48      11.90       5.41
N      11.76       9.75       1.38
C       7.99      13.43       4.86
C       7.03      14.48       5.13
H       9.00      11.72       1.36
H      10.51      10.41      -0.15
H      12.85       9.18       3.05
H      11.42      10.43       4.68
C      11.99       9.75       2.71
C      11.20      10.44       3.61
H       6.58      14.96       3.09
H       4.99      16.82       3.75
H       4.59      17.25       6.20
H       5.79      15.82       7.88
C       9.32      12.01       4.06
C       6.38      15.22       4.13
C       5.50      16.23       4.51
C       5.28      16.47       5.87
C       5.94      15.68       6.81
C      10.11      11.20       3.14
C       9.85      11.17       1.76
C      10.68      10.44       0.93
