11

Cd      10.86      10.87      22.02
N      11.73      11.74      24.02
C       8.56      12.30      21.44
N      12.36      12.03      20.68
C      11.95      13.14      20.03
C      13.67      11.70      20.62
C      11.30      12.95      24.46
C      12.80      11.19      24.64
O      11.04       8.81      21.14
O       8.89      11.25      20.80
C      12.23       8.47      21.49
