34

Cu      14.05      15.92      11.90
Cu      15.36      19.02      14.09
Cu      15.31      15.59      15.45
C      17.49      13.68      15.83
C      18.35      15.47      14.91
Cu      15.34      13.18      19.22
Cu      15.31      16.64      17.92
Cu      14.04      16.30      21.40
C      16.67      21.56      13.37
C      15.59      21.85      15.24
C      17.51      14.34      21.07
C      18.43      13.31      19.39
C      17.49      18.54      17.48
C      18.36      16.76      18.41
C      16.68      10.66      19.93
C      15.60      10.36      18.06
S      13.96      18.20      12.28
S      14.51      17.96      16.01
S      13.54      14.90      13.90
S      13.95      14.02      21.02
S      14.49      14.23      17.30
S      13.50      17.31      19.40
Br      14.31      14.69       9.96
Br      14.25      17.53      23.35
W      13.59      17.10      14.17
N      17.24      18.47      13.40
W      13.58      15.11      19.13
N      15.78      20.97      14.26
C      17.52      17.89      12.24
C      18.45      18.92      13.92
N      17.17      14.88      15.36
N      17.23      13.75      19.90
N      15.79      11.24      19.04
N      17.17      17.34      17.97
