34

Cu       4.82       5.19       0.81
Cu       3.52       8.31       2.98
Cu       3.56       4.85       4.28
C       1.36       7.15       1.13
C       0.44       8.18       2.82
Cu       4.81       5.56      10.30
Cu       3.50       2.47       8.11
Cu       3.56       5.90       6.76
C       1.37       7.80       6.37
C       0.52       6.02       7.29
C       2.20      -0.08       8.83
C       3.28      -0.36       6.96
C       1.34       3.60       9.96
C       0.42       2.57       8.28
S       4.92       7.47       1.18
S       4.38       7.26       4.90
S       5.36       4.18       2.80
S       4.90       3.29       9.92
S       4.36       3.53       6.20
S       5.33       6.59       8.30
Br       4.62       3.96      -1.15
Br       4.55       6.80      12.24
W       5.29       6.38       3.08
N       3.08      10.24       3.16
W       5.27       4.39       8.03
N       1.69       4.15       4.23
N       1.64       7.73       2.30
C       1.38       2.95       4.72
C       0.51       4.72       3.80
N       3.08       0.52       7.94
N       1.70       6.60       6.85
N       1.62       3.02       8.80
C       2.19      10.83       2.27
C       3.26      11.12       4.14
