78

Eu       6.64       2.09       9.34
Eu      -2.57       3.84       1.89
Cu       5.50       9.63       0.00
Cu      -5.89       7.78       5.62
H       0.42       0.93       5.41
H       2.35       2.22       6.43
H       3.31      -1.26       8.75
H       1.44      -2.48       7.54
H       3.18       3.87       9.27
H       0.98       2.79       8.62
H       0.54       8.72       0.55
H       7.98       0.05       1.11
H       3.68       4.97       5.80
H       1.72       3.71       4.81
H       0.72       7.25       2.60
H       7.84      -1.22       3.76
H       0.84       2.07       1.97
H       3.00       3.20       2.62
H       3.53      -2.76      10.77
H      -3.89       5.87      10.20
C       8.61      -1.29       8.04
C       8.48      -1.65       9.38
C       8.14      -0.19       7.14
C       7.90      -1.06      10.60
C       1.10       0.48       6.13
C       2.15       1.19       6.71
C       2.95       0.57       7.67
C       2.70      -0.77       8.00
C       1.67      -1.43       7.35
C       4.08       1.30       8.37
C       2.25       4.09       9.81
C       1.04       3.50       9.45
C      -0.12       3.85      10.15
C      -0.01       4.73      11.23
C       2.66       8.98       0.30
C      -1.47       3.32       9.74
C      -4.51       7.19       3.20
C      -4.41       7.54       1.86
C      -4.05       6.09       4.11
C      -3.84       6.96       0.62
C       2.99       5.44       5.11
C       1.91       4.74       4.55
C       1.09       5.39       3.62
C       1.35       6.73       3.32
C       2.42       7.38       3.94
C      -0.05       4.70       2.92
C       1.78       1.86       1.45
C       2.97       2.48       1.81
C       4.15       2.14       1.13
C       4.07       1.23       0.07
C       1.40      -3.04      10.99
C       5.47       2.71       1.56
N       9.36      -2.27       7.47
N       4.51       6.45       8.35
N       9.17      -2.82       9.51
N       0.88      -0.81       6.45
N       2.33       4.96      10.83
N      -5.26       8.17       3.78
N      -0.41      -0.54       2.90
N      -5.09       8.72       1.74
N       3.22       6.73       4.81
N       1.72       0.97       0.44
O       8.67      -0.20       5.97
O       7.26       0.62       7.51
O       7.29       0.06      10.55
O       9.47       2.01       0.45
O       4.54       2.37       7.84
O       4.52       0.78       9.44
O      -2.50       3.95      10.14
O      -1.52       2.28       9.00
O      -4.57       6.10       5.28
O      -3.18       5.26       3.73
O      -3.22       5.85       0.64
O       5.25       3.90      10.78
O      -0.44       3.56       3.33
O      -0.57       5.32       1.93
O       6.52       2.02       1.29
O       5.50       3.81       2.17
