16

H       4.82       2.12      11.75
N       4.79       2.56       9.71
N       4.83       5.21      10.44
C       4.83       6.09       8.19
C       4.82       4.90       9.14
C       4.80       3.54       8.79
C       4.76       3.01       7.37
C       4.81       2.92      11.00
C       4.83       4.26      11.38
C       4.84       4.83      12.77
O       5.86       2.78       6.79
O       3.62       2.71       6.92
O       4.91       7.24       8.79
O       4.76       5.86       6.98
O       4.87       4.07      13.79
O       4.82       6.10      12.84
