16

H       1.60       2.80       3.00
N       1.65      -0.27       1.63
N       1.63       2.40       0.95
O       0.50       2.29      -1.87
C       1.66      -1.11      -0.64
C       1.65       0.07       0.34
C       1.64       1.44       0.01
C       1.63       2.00      -1.39
C       1.62       2.02       2.24
C       1.63       0.66       2.59
C       1.62       0.08       3.97
O       2.74       2.29      -1.92
O       1.66      -2.27      -0.05
O       1.68      -0.86      -1.85
O       1.57       0.84       4.99
O       1.67      -1.19       4.03
