15

C       4.95       1.08      11.96
O       3.82       4.69       8.37
H       7.13       1.70      14.25
H       4.23       0.44      11.48
H       4.11       2.76       9.89
H       6.13       4.92      10.76
H       6.77       3.66      12.67
C       6.45       1.71      13.41
N       6.30       2.73      12.55
C       5.34       2.37      11.61
C       4.90       3.19      10.52
C       5.35       4.42      10.19
C       4.76       5.15       9.05
N       5.65       0.69      13.07
O       5.30       6.32       8.81
