15

O      11.51       8.36       2.99
C       5.85       6.06       5.09
C       6.90       7.91       5.59
C       7.69       7.23       4.67
C       8.94       7.60       4.08
C       9.57       6.94       3.08
C      10.84       7.41       2.48
H       5.09       5.28       5.04
H       7.07       8.86       6.08
H       9.40       8.51       4.46
H       9.15       6.03       2.64
H       7.35       5.24       3.82
O      11.21       6.77       1.41
N       5.76       7.17       5.84
N       6.99       6.06       4.37
