15

C       1.74       6.13       6.86
C       2.15       7.71       5.41
C       0.93       7.15       5.06
C       0.06       7.48       3.97
C      -1.09       6.86       3.63
C      -1.90       7.35       2.50
H       1.84       5.46       7.69
H       2.69       8.52       4.93
H       0.37       8.33       3.36
H      -1.47       6.00       4.19
N       2.64       7.07       6.52
N       0.71       6.15       6.00
H      -0.15       5.55       6.12
O      -2.99       6.65       2.26
O      -1.58       8.36       1.84
