15

C       7.27       8.79      10.37
C       9.31       8.95       9.63
C       8.77       7.81       9.06
H       6.36       9.01      10.90
H      10.30       9.37       9.49
C       9.37       6.86       8.17
H      10.38       7.10       7.84
C       8.80       5.73       7.70
N       8.38       9.55      10.44
N       7.47       7.74       9.57
H       6.71       7.06       9.32
H       7.80       5.42       7.98
C       9.53       4.87       6.75
O       8.90       3.77       6.39
O      10.66       5.16       6.31
