122

V       0.42      -3.09      10.48
V       3.88      11.54      10.61
V       4.69      14.77       0.07
V       1.16      -6.33      21.03
H      -0.08       9.44      16.74
H       3.71      -0.98       4.36
H       4.40       9.38      14.42
H       0.99      -0.94       6.65
H       5.36       7.02      10.79
H       3.01       1.40      10.27
H       5.26       3.45       7.74
H       3.38       4.97      13.31
H      -0.05       6.83       0.70
H       1.65       1.66      20.42
H       6.90      -1.84      20.80
H       2.08      10.31       0.32
H       5.87       2.91       3.42
H       3.02       5.52      17.66
H       6.79       8.58       5.10
H       1.73      -0.10      16.01
H       5.56       3.15       5.42
H       3.19       5.28      15.64
H       5.19       4.83       9.71
H       3.31       3.58      11.33
H       3.04      -4.96      16.30
H       3.39       8.69      17.46
H       3.71      -4.46      17.88
H       6.54      13.32       4.76
H       7.17      -0.31       3.60
H       0.05      12.84       3.18
H       0.19      -2.38      14.55
H       6.61      -2.86      16.09
H       0.81      -3.82      15.42
H       3.67      10.82       6.56
H       2.87      11.27       5.02
H       4.27      12.24       5.66
H       1.00       8.50       2.05
H       6.45       8.87       1.74
H       0.10       9.58       3.15
H       2.17      -0.41      19.36
H       0.44       0.07      19.12
H       1.23      -1.07      17.98
H       6.46       8.84       7.10
H       2.07      -0.39      14.02
C       2.42      -0.93      11.50
C       5.91       9.37       9.60
C       2.30      12.39       8.15
C       6.04      -3.95      12.94
C       5.04       9.71      16.50
C       1.64      -1.29       4.58
C       6.16       9.48      17.25
C       2.76      -1.04       3.85
C       5.14       9.91      15.02
C       1.72      -1.47       6.06
C       6.12      -4.14      14.41
C       2.39      12.58       6.69
C       6.38       3.66       1.53
C       2.55       4.79      19.57
C       5.94       8.05       8.98
C       2.50       0.39      12.11
C       6.86       6.01       1.35
C       1.95       2.47      19.77
C       6.75       4.76       0.76
C       2.16       3.71      20.35
C       6.13       3.81       2.89
C       2.73       4.63      18.20
C       6.27       5.07       3.53
C       2.49       3.39      17.56
C       6.64       6.19       2.73
C       2.10       2.29      18.37
C       6.08       5.23       4.94
C       2.62       3.22      16.14
C       6.26       6.52       5.54
C       2.36       1.94      15.56
C       6.63       7.60       4.71
C       1.97       0.88      16.40
C       6.81       7.45       3.33
C       1.84       1.03      17.78
C       5.72       4.15       5.78
C       2.98       4.29      15.29
C       5.54       4.31       7.14
C       3.09       4.12      13.92
C       5.70       5.56       7.74
C       2.87       2.87      13.34
C       6.07       6.68       6.95
C       2.50       1.76      14.14
C       5.48       5.69       9.12
C       3.03       2.74      11.95
C       5.58       6.93       9.73
C       2.85       1.50      11.34
C       6.20       7.93       7.62
C       2.31       0.52      13.49
C       2.66      14.18       2.39
C       6.35      -5.74      18.70
C       2.64       6.13      20.15
C       6.42       2.32       0.94
C       3.79      -5.21      17.08
C       0.10      13.60       3.99
C       7.09      -3.26      15.17
C       3.35      11.68       5.93
C       0.02       8.67       2.52
C       1.40      -0.16      18.60
O       3.46      12.20       8.76
O      -0.00      -3.76      12.34
O       1.19      -1.39      11.24
O       4.68       9.83       9.85
O       1.23      -2.57       8.70
O       4.67      11.01      12.39
O      -0.11       9.98       9.78
O       3.60      -1.53      11.32
O       2.27      10.90      10.90
O       6.00      -2.46      10.19
O       1.48       6.74      20.33
O       5.25       1.71       0.77
O       3.88      14.25       1.85
O       0.37      -5.81      19.25
O       3.85       6.60      20.40
O       0.43       1.85       0.69
O       5.04       8.96      19.31
O       1.65      -0.52       1.79
O       2.77      -5.70      20.74
O       6.31      14.14       0.35
