21

O      13.74       1.79       1.25
O      16.59       5.43       3.89
O      18.64       5.90       3.41
O      14.68       0.99      -0.91
O      17.65       3.79       4.68
C      17.73       3.87       2.00
C      18.31       4.42       0.88
C      17.87       4.00      -0.37
C      16.86       3.05      -0.47
C      16.27       2.49       0.67
C      16.72       2.92       1.92
H      18.98       5.05       0.96
H      18.25       4.36      -1.14
P      14.97       1.26       0.53
H      16.57       2.77      -1.31
S      18.66       3.97       3.65
H      16.35       2.56       2.70
S      17.88       4.80       3.65
O      15.42       0.00       1.25
O      19.22       2.65       3.89
O      19.81       4.66       3.41
