30

C       6.16       1.02       0.74
C       6.95      -1.29       0.65
C       5.22      -0.62       2.32
H       6.78      -1.25      -1.39
H       8.24      -1.58      -0.91
H       6.94       2.22      -0.73
H       5.98       1.12      -1.30
H       9.12      -0.03      -2.46
H       7.72       0.43      -2.97
O       7.91       3.23      -2.83
H       8.50       0.62      -0.33
O       9.86       2.09      -3.95
C       7.47      -1.02      -0.74
C       6.68       1.29      -0.65
C       8.41       0.62      -2.32
P       4.55      -2.28       2.67
P       9.08       2.28      -2.67
N       5.78      -0.42       0.94
O       9.92       2.66      -1.46
N       7.85       0.42      -0.94
H       6.85       1.25       1.39
H       5.39       1.58       0.91
H       6.69      -2.22       0.73
H       7.65      -1.12       1.30
H       4.51       0.03       2.46
H       5.92      -0.43       2.97
H       5.13      -0.62       0.33
O       5.72      -3.23       2.83
O       3.77      -2.09       3.95
O       3.71      -2.66       1.46
