22

C       5.27       7.24       1.37
C       6.29       6.73      -1.44
C       3.81       2.39      -1.41
C       5.11       5.94       0.65
C       5.33       5.83      -0.73
C       4.69       4.79      -1.45
C       4.22       3.65      -0.75
C       4.26       3.66       0.65
C       4.70       4.79       1.36
C       4.16       5.12      -2.80
C       5.17       4.61       2.74
H       7.03       6.29      -2.09
H       3.25       1.65      -0.86
H       4.00       2.76       1.19
H       4.56       7.49       2.15
O       5.05       3.47       3.30
O       5.97       5.49       3.19
O       3.19       4.45      -3.32
O       4.47       6.27      -3.23
O       6.22       7.98       1.18
O       6.20       7.94      -1.38
O       4.17       2.13      -2.55
