50

N       7.77      15.72       3.07
C       7.97      14.47       3.55
N       8.35      12.23       2.47
C       6.22       9.16       2.50
C       8.24      14.04      -0.13
N       9.58       1.73       1.70
N       9.66       1.71       3.08
N       9.08       5.20       2.47
C      11.06       9.67       2.43
C       9.33       2.99       1.30
C       8.79       8.01       2.47
H       8.92      13.95       5.41
H       7.30      13.25       5.17
H       7.48      14.97       5.56
C      10.26       5.98       2.61
C       7.78       5.72       2.35
H       5.22       9.60       2.55
C       9.25       3.79       2.45
C      10.09       7.45       2.51
H       7.73      14.75      -0.79
H       7.81      13.05      -0.29
H       9.30      14.01      -0.43
O      10.61      12.46       2.14
O       6.08      11.99       2.79
C       7.64       7.19       2.43
C       9.50       3.29       5.00
H      11.93      10.32       2.40
C       9.46       2.96       3.55
O       6.81       4.97       2.18
O      11.35       5.45       2.79
H       8.50       3.47       5.41
C      11.21       8.27       2.50
C       9.19       3.39      -0.13
H      10.12       4.18       5.18
H       9.94       2.46       5.57
C       6.37       7.76       2.44
H      12.21       7.83       2.55
H       9.71       2.68      -0.78
H       9.63       4.38      -0.29
H       8.14       3.42      -0.43
H       5.50       7.11       2.41
C       8.10      14.44       1.30
C       8.64       9.42       2.47
C       7.17      11.45       2.61
C       9.65      11.71       2.33
C       8.18      13.64       2.44
C       7.34       9.98       2.52
C       7.92      14.14       5.00
C       9.79      10.24       2.42
N       7.85      15.70       1.70
