50

N      24.40      18.28      15.31
N      24.42      18.36      13.93
N      20.93      17.78      14.54
N      10.43      16.55      15.33
N      10.40      16.47      13.95
N      13.90      17.04      14.55
O      21.16      15.51      14.86
O      20.68      20.04      14.22
O      13.67      19.31      14.86
C      23.14      18.03      15.71
C      18.12      17.48      14.55
O      14.14      14.77      14.24
C      20.14      18.95      14.40
C      20.41      16.47      14.68
C      22.34      17.95      14.56
C      18.68      18.79      14.50
H      22.65      17.20      11.60
H      21.94      18.82      11.84
H      23.67      18.65      11.45
C      22.84      18.21      12.01
C      18.94      16.33      14.59
C      23.17      18.16      13.46
H      18.30      20.90      14.47
H      23.46      18.39      17.80
H      21.75      18.31      17.30
H      22.71      16.82      17.44
C      17.86      19.91      14.51
C      22.74      17.88      17.14
H      19.02      14.19      14.61
C      18.37      15.06      14.58
C      11.70      16.79      15.73
C      16.71      17.33      14.55
H      12.17      17.63      11.62
H      12.88      16.01      11.85
C      14.68      15.86      14.41
H      11.15      16.18      11.46
C      14.42      18.35      14.68
H      16.53      13.92      14.47
C      16.15      16.03      14.50
C      12.49      16.87      14.58
H      11.38      16.41      17.81
H      13.09      16.49      17.31
H      15.81      20.63      14.61
C      11.98      16.62      12.02
C      15.89      18.49      14.59
H      12.13      17.98      17.46
C      11.65      16.66      13.47
C      16.97      14.91      14.52
C      12.09      16.93      17.15
C      16.46      19.75      14.58
