50

N      10.01      19.57      12.17
N      11.04      20.18      12.85
N      16.30      23.94       0.23
N      15.25      23.33      -0.43
N      14.45      22.60       3.02
N      11.96      20.81       9.42
O      12.54      18.62       9.02
O      14.10      24.82       3.53
O      14.68      20.37       2.49
O      11.44      23.02       9.82
C      10.22      19.73      10.84
C      16.16      23.74       1.56
C      11.90      20.72      11.96
C      11.91      22.19       9.05
C      13.23      21.96       0.12
H      13.43      20.88       0.20
H      12.91      22.21      -0.89
H      12.41      22.19       0.82
C      14.44      22.74       0.49
C      14.99      22.99       1.76
C      13.39      21.87       5.55
C      12.45      22.53       7.71
C      14.33      21.21       3.31
C       9.29      19.17       9.82
H       8.32      18.95      10.27
H      12.10      24.62       8.00
C      13.76      19.52       5.05
C      13.81      20.86       4.65
H       9.13      19.89       9.00
C      14.01      23.63       3.87
C      13.45      23.24       5.18
C      12.47      23.86       7.31
H       9.70      18.25       9.39
H      13.03      25.26       5.73
C      13.11      21.50      12.35
H      13.47      21.18      13.33
C      11.40      20.44      10.67
C      12.91      21.51       6.84
C      12.48      19.77       8.60
C      12.91      20.15       7.23
C      12.98      24.22       6.05
H      16.68      25.00       3.21
C      17.14      24.25       2.56
H      17.51      23.43       3.20
H      18.00      24.70       2.05
H      13.33      18.13       6.65
H      14.08      18.76       4.34
C      13.33      19.17       6.34
H      13.91      21.36      11.61
H      12.87      22.58      12.39
