43

Zn      16.30       1.48      31.72
Zn      19.22       3.40      31.10
N      20.87       2.86      29.71
Zn      22.09       1.51      31.99
N      20.30       0.62      32.24
N      19.21       1.34      31.92
N      18.10       0.61      32.03
N      21.73       3.32      32.92
N      19.22       5.55      30.22
N      21.93       2.13      30.07
N      20.96       3.21      28.42
N      19.39       5.83      28.93
N      19.27       6.67      30.96
Zn      19.10       6.49      32.97
Zn      19.46       4.28      27.63
C      21.78       5.24      34.06
C      16.34       5.17      33.79
C      15.66       3.98      33.47
C      14.65      -0.03      33.01
C      20.01       5.18      25.18
C      18.47      -0.65      32.42
O      23.74       0.98      32.93
O      14.76       0.26      31.73
O      18.29       8.07      33.89
C      22.47       4.03      33.83
O      19.03       4.52      25.75
C      19.88      -0.64      32.56
C      15.92       2.12      28.64
C      16.70       2.81      27.68
C      22.75       2.00      28.99
C      22.13       2.70      27.93
C      19.49       7.72      30.11
C      19.56       7.18      28.80
C      23.94      -0.23      32.47
C      19.33       8.85      33.96
N      17.83       3.23      28.31
N      17.76       2.83      29.59
N      16.63       2.16      29.81
N      16.48       3.27      32.63
N      17.59       3.99      32.45
N      17.54       5.14      33.13
N      20.65       5.21      33.29
N      20.66       4.05      32.61
