28

H      -9.57       9.71      13.56
C     -10.96       8.42      15.44
H      -7.88       8.73      11.95
C     -10.08       7.80      14.40
H      -8.73       4.80      13.45
H     -10.39       5.76      15.06
C      -9.38       8.64      13.51
H     -12.40       6.72      19.52
C      -8.45       8.10      12.63
H     -10.95       8.20      18.11
C      -8.22       6.71      12.61
H     -12.94       6.72      14.57
C      -8.93       5.87      13.48
H     -14.51       5.41      16.01
C      -9.86       6.41      14.37
C      -7.21       6.13      11.68
C     -12.53       6.76      18.44
O      -6.54       6.93      10.95
C     -11.71       7.57      17.65
O      -7.10       4.85      11.69
C     -11.85       7.54      16.25
O     -14.05       4.92      19.89
C     -12.84       6.74      15.66
O     -15.52       4.74      18.16
C     -13.72       6.01      16.46
O     -10.91       9.63      15.67
C     -13.55       6.00      17.85
C     -14.44       5.16      18.69
