28

H      13.31      -1.81       5.76
C      15.91      -1.23       5.82
H      11.46      -0.74       7.11
C      14.82      -0.49       6.51
H      14.28       2.03       8.77
C      13.50      -0.96       6.41
H      16.12       0.96       7.45
H      20.47      -1.36       6.72
C      12.48      -0.37       7.16
H      18.16      -2.34       6.75
C      12.77       0.70       8.01
H      16.68       1.18       4.75
C      14.08       1.19       8.10
H      19.02       2.04       4.53
C      15.10       0.60       7.36
C      11.70       1.33       8.84
C      19.63      -0.84       6.26
O      10.53       0.82       8.77
C      18.35      -1.37       6.30
O      12.04       2.34       9.54
C      17.28      -0.64       5.76
O      22.12       0.43       6.35
C      17.51       0.61       5.15
O      21.47       1.86       4.69
C      18.81       1.09       5.03
O      15.71      -2.36       5.35
C      19.88       0.37       5.60
C      21.26       0.93       5.54
