54

Fe      -1.82       7.54       3.73
Fe       0.63       7.33       5.38
Fe       1.97       0.60       8.40
Fe       3.06       8.90       4.64
Fe      -0.45      -0.98       9.13
Fe       4.43       0.39      10.05
H       0.06       7.15       0.08
H       0.10       3.59       6.25
H       2.51      11.46       7.55
H       2.55       0.77      13.69
H       2.52       4.34       7.53
H       0.10      -3.53       6.22
C      -0.69       1.85       8.00
C       0.90       0.02      12.52
C       3.55       4.15       7.23
C      -1.64       4.79       5.91
C       0.78      10.58       6.66
C       3.30       6.07       5.77
C       4.25       3.13       7.86
C       1.10       7.49       0.04
C      -0.59      10.78       6.26
C       1.69       0.11      11.33
C      -1.42       9.84       5.57
C       3.21      -2.86       7.51
C      -0.48      -0.39      12.60
C       1.48      11.63       7.24
C       3.09       8.31       1.18
C       1.83      -2.66       7.11
C       1.13      -3.70       6.53
C       1.52       0.44      13.74
C       1.71       7.91       1.25
C      -0.93       3.78       6.54
C       0.92       7.82       2.44
C       4.03      -1.91       8.20
C      -1.52       2.91       7.51
C       4.13       5.02       6.26
S      -1.39      -1.13      11.27
S       1.65       9.03       6.64
S      -0.79       5.58       4.55
S       0.96      -1.11       7.13
S       3.40       2.35       9.22
S       4.00       9.06       2.50
O       5.28      -2.17       8.43
O       3.81       7.07       5.04
O      -0.93       8.69       5.10
O       1.46       7.95       3.66
O       2.04       6.11       6.06
O       0.57       1.82       7.72
O      -1.20       0.84       8.73
O       1.15      -0.02      10.11
O       3.53      -0.77       8.69
O      -0.34       7.56       2.36
O      -2.67      10.10       5.35
O       2.95       0.39      11.41
