180

Zn       5.38      10.37       7.25
Zn       4.99       4.28       6.50
Zn       1.48       2.86       8.08
Zn       1.87      11.80       8.84
Zn       8.29      12.18      -0.44
Zn       8.67      18.28      -1.19
Zn      12.18      19.70       0.43
Zn      11.80      10.73       1.19
Zn       8.31      19.71       8.08
Zn       8.69      10.76       8.83
Zn      -1.44      12.18       7.25
Zn      -1.83       3.24       6.49
Zn       5.37      17.89       0.44
Zn       4.99      11.80       1.19
Zn       1.48      10.37      -0.43
Zn       1.85      19.34      -1.19
Zn       0.02       7.52       7.66
Zn       6.84      15.04       7.66
Zn       0.02      15.05       0.03
Zn       6.84       7.51       0.03
C       6.77      11.88       3.65
C       6.86      11.47       4.99
C       4.87      10.97       4.21
C       7.71      12.42       2.70
C       7.91      11.56       6.04
C       3.38       8.03       7.69
C       3.29       6.66       7.41
C       5.21       7.38       6.69
C       2.49       8.96       8.40
C       2.27       5.65       7.74
C       0.09       4.38      11.68
C       0.00       3.96      10.34
C       1.98       3.46      11.13
C      -0.85       4.94      12.63
C      -1.05       4.04       9.29
C       3.47      15.55       7.64
C       3.56      14.17       7.92
C       1.65      14.90       8.64
C       4.37      16.48       6.93
C       4.59      13.17       7.60
C       6.91      10.66      11.31
C       6.83      11.07      12.65
C       8.81      11.57      11.86
C       5.96      10.10      10.36
C       5.78      10.99      13.71
C      10.27      14.53       0.01
C      10.36      15.90      -0.27
C       8.44      15.18      -0.98
C      11.18      13.60       0.71
C      11.38      16.91       0.07
C      -0.05       3.16       4.01
C       0.03       3.58       2.67
C      -1.96       4.05       3.46
C       0.90       2.61       4.96
C       1.09       3.53       1.61
C      10.18       7.01      -0.01
C      10.10       8.38       0.27
C      12.01       7.65       0.98
C       9.29       6.08      -0.73
C       9.07       9.39      -0.05
C       6.91       3.16      11.68
C       6.82       3.57      10.34
C       8.80       4.06      11.12
C       5.96       2.62      12.63
C       5.76       3.48       9.28
C      10.29       7.01       7.64
C      10.38       8.38       7.92
C       8.47       7.66       8.64
C      -2.45       6.08       6.93
C      -2.23       9.39       7.59
C      -0.04      10.66       3.65
C       0.04      11.08       4.98
C      -1.94      11.58       4.20
C       0.90      10.10       2.70
C       1.10      11.00       6.04
C      10.21      14.53       7.69
C      10.12      15.90       7.41
C      12.04      15.18       6.69
C       9.32      13.60       8.40
C       9.10      16.91       7.73
C       6.77       4.38       4.02
C       6.85       3.97       2.68
C       4.87       3.47       3.47
C       7.71       4.93       4.97
C       7.90       4.05       1.62
C       3.38      15.55      -0.01
C       3.30      14.18       0.27
C       5.22      14.90       0.98
C       2.48      16.48      -0.71
C       2.27      13.17      -0.05
C       0.09      11.88      11.32
C       0.01      11.46      12.66
C       2.00      10.99      11.87
C      -0.85      12.43      10.37
C      -1.05      11.51      13.72
C       3.46       8.03       0.01
C       3.55       6.66      -0.27
C       1.63       7.38      -0.98
C       4.36       8.96       0.73
C       4.57       5.65       0.05
N       5.51      11.55       3.18
N       5.65      10.90       5.31
N       4.61       8.47       7.22
N       4.46       6.27       6.79
N       1.35       4.04      12.16
N       1.20       3.38      10.03
N       2.24      15.98       8.11
N       2.40      13.78       8.54
N       8.17      10.99      10.83
N       8.03      11.64      12.96
N       9.04      14.09      -0.45
N       9.19      16.29      -0.88
N      -1.31       3.47       4.49
N      -1.18       4.14       2.36
N      11.41       6.57       0.45
N      11.26       8.77       0.88
N       8.17       3.49      12.15
N       8.02       4.14      10.02
N       9.06       6.57       8.11
N       9.22       8.77       8.54
N      -1.30      11.00       3.17
N      -1.16      11.66       5.30
N      11.44      14.09       7.22
N      11.29      16.30       6.79
N       5.51       4.05       4.50
N       5.65       3.40       2.37
N       4.62      15.99       0.45
N       4.47      13.78       0.88
N       1.35      11.56      10.84
N       1.22      10.91      12.97
N       2.24       8.47      -0.45
N       2.38       6.27      -0.88
O       7.35      12.56       1.50
O       7.55      10.94       7.16
O       3.04      10.00       8.92
O       1.24       8.79       8.51
O       1.14       5.97       8.24
O       2.61       4.44       7.49
O      -0.49       5.11      13.82
O      -0.69       3.42       8.18
O       3.80       2.48       6.41
O       5.62      16.31       6.81
O       5.72      13.49       7.10
O       4.25      11.96       7.84
O       6.32       9.94       9.17
O       6.11      11.62      -0.52
O      10.63      12.55       1.23
O      12.43      13.76       0.82
O      -1.14      16.58       0.60
O      11.06      18.11      -0.20
O       0.54       2.48       6.15
O       0.70      19.13       0.49
O       9.86      20.07      -1.23
O       8.04       6.25      -0.87
O       7.94       9.07      -0.54
O       9.41      10.60       0.20
O       6.31      17.52      -1.50
O       6.12       4.10       8.17
O      -3.00       5.04       6.41
O      -1.19       6.25       6.81
O      -1.10       9.07       7.09
O      -2.57      10.60       7.83
O       0.53       9.93       1.51
O       0.73      11.62       7.15
O       9.88      12.56       8.92
O       8.07      13.77       8.52
O       7.97      16.59       8.23
O       9.44      18.12       7.49
O       7.35       5.10       6.16
O       7.54       3.42       0.52
O       3.02      17.52      -1.23
O       1.23      16.31      -0.82
O       1.15      13.49      -0.55
O       2.60      11.96       0.20
O      -0.50      12.56       9.17
O      -0.64      10.94      14.84
O       3.80      10.00       1.23
O       5.61       8.78       0.88
O       5.70       5.96       0.55
O       4.25      19.48      -0.20
