88

V       1.43      12.36      12.61
V       5.83       3.91       4.21
V       5.06      12.05      12.63
V       2.20       4.22       4.20
H       6.52      11.86       1.68
H       0.73       4.41      15.14
H       2.89      11.20       6.73
H       4.36       5.08      10.09
H       7.19       5.68      13.21
H       0.06      10.59       3.62
H       3.57       3.81      12.03
H       3.68      12.47       4.79
H       6.48      12.21      16.30
H       0.77       4.06       0.52
H       2.86      12.20       8.93
H       4.40       4.08       7.89
C       3.46      13.93      14.36
C       3.79       2.35       2.46
C       7.09      10.49      10.87
C       0.17       5.79       5.95
C       3.45      13.85      10.75
C       3.80       2.43       6.07
C       7.08      10.56      14.48
C       0.17       5.71       2.34
C       0.04       7.64       7.89
C       7.22       8.63       8.93
C       3.67       0.49       0.52
C       3.59      15.78      16.30
C       6.75      10.23       0.31
C       0.50       6.05      16.51
C       3.12      12.83       8.10
C       4.13       3.44       8.73
C       6.76      10.81       1.57
C       0.49       5.46      15.25
C       3.13      12.25       6.84
C       4.12       4.03       9.98
C       7.18      10.08       2.67
C       0.08       6.19      14.15
C       3.55      12.98       5.74
C       3.70       3.29      11.08
C       0.27       8.73       2.54
C       6.98       7.54      14.28
C       3.89      14.33       5.87
C       3.36       1.94      10.95
C       0.07       8.05       1.30
C       7.19       8.22      15.52
C       3.69      15.01       7.11
C       3.56       1.27       9.71
C       7.05       8.86       0.14
C       0.20       7.42      16.68
C       3.42      14.21       8.27
C       3.83       2.07       8.55
C       0.17       6.64       1.16
C       7.09       9.64      15.67
C       3.79       1.50       7.25
C       3.46      14.77       9.57
C       0.10       6.80       7.00
C       7.15       9.47       9.82
C       3.73       1.34       1.41
C       3.53      14.94      15.42
C       1.13       8.22       3.57
C       6.12       8.05      13.25
C       4.76      14.84       4.84
C       2.49       1.44      11.98
N       1.87       7.87       4.39
N       5.39       8.40      12.43
N       5.49      15.19       4.02
N       1.76       1.08      12.80
O       4.63      13.34      11.16
O       2.62       2.93       5.66
O       1.00      11.07      14.07
O       6.25       5.21       2.75
O       2.25      13.60      13.91
O       5.00       2.68       2.91
O       5.88      10.81      11.32
O       1.38       5.46       5.50
O       2.24      13.50      11.16
O       5.02       2.77       5.66
O       5.87      10.91      14.07
O       1.39       5.36       2.75
O       0.99      10.97      11.30
O       6.26       5.30       5.52
O       4.62      13.44      13.93
O       2.64       2.83       2.89
O       3.42      11.38      12.66
O       3.84       4.90       4.16
O       7.05      13.04      12.57
O       0.21       3.24       4.25
