16

C      12.08       7.21       9.98
C      11.23       8.15       9.18
H      10.35       6.62       7.95
H       9.06       8.23       6.54
H      10.65      11.49       8.88
H      11.95       9.87      10.24
C      10.40       7.69       8.14
C       9.68       8.59       7.36
C       9.77       9.97       7.62
C      10.58      10.43       8.67
C      11.30       9.53       9.44
C       9.02      10.92       6.77
O      12.15       6.00       9.58
O      12.68       7.73      10.98
O       8.46      10.54       5.69
O       8.89      12.16       7.12
