16

C      16.00      13.67      12.27
C      15.28      12.77      13.06
C      15.37      11.39      12.80
C      16.18      10.92      11.75
C      16.90      11.82      10.98
C      14.62      10.43      13.64
H      15.95      14.74      12.46
H      14.66      13.13      13.87
H      16.26       9.86      11.54
H      17.55      11.48      10.18
O      17.75      15.35      10.83
O      18.26      13.63       9.42
O      14.05      10.82      14.73
O      14.50       9.20      13.30
C      17.68      14.14      10.43
C      16.82      13.20      11.24
