16

O      10.28       8.24       4.03
O       9.75       6.51       2.63
C      10.35       7.03       3.63
C      11.20       6.09       4.43
C      12.03       6.55       5.47
C      12.74       5.65       6.25
C      12.66       4.27       6.00
C      11.85       3.81       4.94
C      11.13       4.71       4.17
C      13.41       3.32       6.84
O      13.97       3.70       7.93
O      13.54       2.08       6.49
H      12.08       7.62       5.66
H      13.37       6.00       7.07
H      11.78       2.75       4.73
H      10.48       4.37       3.37
