13

C       8.86      18.39       5.48
C       8.42      17.38       6.32
C       8.95      16.17       5.80
C       9.68      16.51       4.69
C      10.46      15.67       3.75
H       7.80      17.51       7.20
H       8.81      15.17       6.18
O      11.13      16.24       2.83
O      10.39      14.41       3.95
O       9.64      17.87       4.48
O       9.08      20.64       4.68
O       7.74      20.22       6.40
C       8.56      19.82       5.50
