13

C      11.60       5.67       4.75
C      11.24       9.32       5.08
H      11.48       4.67       4.36
H      10.49       7.02       3.35
O      11.75      10.13       5.92
O      10.45       9.73       4.15
C      13.08       5.13       6.82
O      13.04       3.88       6.58
O      13.72       5.68       7.77
O      12.28       7.34       6.10
C      11.52       7.88       5.09
C      12.32       5.98       5.89
C      11.09       6.88       4.24
