13

O      12.71       7.75      15.35
O      13.40       6.58      17.17
O      14.14       6.05      13.71
O      14.70       5.85      10.94
O      16.04       4.12      11.37
C      15.22       5.02      11.76
C      14.92       5.04      13.20
C      15.35       4.20      14.21
C      14.83       4.73      15.41
C      14.10       5.85      15.07
C      13.34       6.80      15.91
H      15.97       3.33      14.07
H      14.97       4.35      16.42
