13

O      16.07      17.10      14.41
O      16.78      16.58      17.87
O      17.33      16.38      20.65
O      18.68      14.65      20.22
H      18.60      13.85      17.52
H      17.59      14.88      15.17
C      17.85      15.56      19.83
C      17.56      15.58      18.39
C      17.99      14.73      17.38
C      17.47      15.26      16.18
C      16.75      16.38      16.51
C      16.00      17.33      15.66
O      15.35      18.28      16.21
