13

H      11.47      16.42      16.70
C      11.20      11.76      16.02
C      11.49      13.20      16.00
C      11.07      14.20      16.84
C      11.59      15.41      16.32
C      12.32      15.08      15.20
C      13.09      15.91      14.25
H      10.46      14.06      17.72
O      13.71      15.34      13.30
O      13.05      17.17      14.48
O      12.28      13.72      14.99
O      11.73      10.93      15.20
O      10.38      11.37      16.92
