13

O      11.07       4.86      18.27
O      10.35       6.66      17.10
O       9.61       3.19      16.62
O       9.12       0.40      16.39
C       8.58       1.21      15.58
C       8.85       2.66      15.61
C       8.43       3.65      14.75
C       8.94       4.87      15.26
O       7.77       0.80      14.67
C       9.65       4.55      16.40
C      10.42       5.41      17.33
H       7.83       3.50      13.86
H       8.81       5.87      14.87
