13

C       7.27       5.45       1.21
C       6.99       5.43       2.65
C       7.42       6.29       3.65
C       6.90       5.78       4.86
C       6.19       4.64       4.54
C       5.42       3.71       5.40
H       8.02       7.18       3.50
H       7.03       6.17       5.86
O       4.79       2.76       4.85
O       5.47       3.95       6.65
O       6.23       4.42       3.18
O       6.76       4.61       0.40
O       8.05       6.38       0.80
