34

C       8.82       1.43       3.31
C       7.47       2.12       3.49
C       5.72       0.29       3.85
C       4.80      -0.31       3.03
C       5.84       1.20       1.82
C       6.26       2.08       0.71
H      13.05       2.40       7.18
H      11.38       2.57       6.62
H      12.30       1.09       6.22
H      14.61       4.98       3.45
H      12.89       3.37       1.91
H      11.49       1.35       2.45
H      11.41       0.76       4.11
H       9.88       2.73       4.68
H       9.96       3.24       3.01
H       8.92       1.08       2.27
H       8.85       0.53       3.94
H       7.41       3.04       2.90
H       7.30       2.41       4.54
H       5.97       0.14       4.89
H       4.10      -1.11       3.24
H       5.83       1.72      -0.24
H       5.92       3.12       0.86
H       7.35       2.10       0.59
N      13.80       3.81       5.07
N      12.44       2.56       3.85
N       6.35       1.26       3.08
N       4.89       0.26       1.77
C      12.37       2.18       6.35
C      12.88       2.84       5.12
C      13.94       4.17       3.74
C      13.10       3.41       2.97
C      11.34       1.67       3.49
C       9.98       2.36       3.66
