34

C       1.97       8.43      20.11
C       1.47       7.77      18.88
C       0.40       6.43      17.50
C       1.24       7.20      16.74
C       3.00       8.94      17.25
C       4.36       8.25      17.42
C       5.52       9.18      17.07
C       6.88       8.49      17.26
C       8.63      10.31      17.61
C       9.54      10.92      16.79
C       8.51       9.40      15.58
C       8.09       8.52      14.47
H       1.29       8.21      20.94
H       2.96       8.04      20.39
H       2.05       9.52      19.98
H      -0.26       5.63      17.21
H       1.46       7.24      15.68
H       2.85       9.25      16.22
H       2.93       9.84      17.87
H       4.47       7.87      18.45
H       4.38       7.36      16.77
H       5.43       9.53      16.03
H       5.50      10.08      17.70
H       6.93       7.57      16.66
H       7.04       8.19      18.30
H       8.38      10.47      18.65
H      10.24      11.72      17.00
H       8.52       8.89      13.53
H       8.43       7.49      14.62
H       7.00       8.50      14.35
N       0.54       6.80      18.84
N       1.90       8.04      17.62
N       7.99       9.35      16.84
N       9.46      10.35      15.53
