68

H      30.28      19.86      26.92
C      36.69      24.56      22.63
C      37.87      25.19      22.26
C      35.97      25.05      23.74
H      32.50      25.15      23.45
H      31.56      25.57      24.87
H      30.77      24.75      23.53
C      32.81      19.78      26.83
C      32.49      17.40      26.73
C      33.12      17.22      27.97
C      33.31      15.92      28.45
C      32.91      14.81      27.71
C      32.28      15.01      26.47
C      32.05      16.29      25.99
C      33.19      13.43      28.18
H      30.06      24.72      26.18
H      29.39      23.26      26.91
H      33.75      23.75      22.63
H      34.98      22.64      23.27
H      32.33      19.86      27.82
H      33.89      19.63      27.00
H      33.46      18.06      28.56
H      33.83      15.76      29.40
H      31.99      14.17      25.85
H      31.58      16.45      25.02
H      35.83      26.59      25.24
H      37.96      27.69      24.55
H      34.92      20.60      23.85
C      38.36      26.30      22.96
C      37.61      26.80      24.04
C      36.42      26.20      24.42
C      39.66      26.92      22.59
H      27.36      24.29      22.95
H      34.95      19.96      25.48
O      28.87      23.60      24.90
O      32.28      18.62      26.14
O      34.84      24.48      24.25
H      25.26      25.63      23.11
O      23.65      27.25      24.39
O      40.28      27.62      23.47
O      40.14      26.73      21.42
O      33.66      13.25      29.37
O      32.97      12.45      27.38
O      23.71      26.93      26.59
C      24.18      26.69      25.42
H      27.75      24.43      27.25
H      35.68      21.53      25.14
H      36.34      23.69      22.09
H      38.46      24.79      21.43
H      30.25      21.21      28.07
C      31.06      22.89      25.62
C      31.28      21.64      26.20
C      32.54      21.01      26.02
C      33.50      21.56      25.15
C      33.21      22.77      24.49
C      32.01      23.47      24.74
C      30.20      20.95      27.00
C      34.82      20.88      24.91
C      31.70      24.80      24.11
C      29.83      23.66      25.99
C      27.70      24.29      25.08
C      26.98      24.62      23.92
C      25.82      25.37      24.01
C      25.34      25.79      25.27
C      26.03      25.38      26.42
C      27.22      24.67      26.34
H      29.21      21.22      26.64
C      34.22      23.37      23.55
