68

O      27.36      17.10       6.88
C      25.78      15.38       6.71
C      24.60      14.78       7.10
C      29.39      21.80       4.30
C      29.72      24.18       4.40
C      29.09      24.36       3.16
C      28.89      25.66       2.68
C      29.30      26.77       3.43
C      29.93      26.57       4.67
C      30.15      25.29       5.15
C      29.02      28.15       2.95
O      28.55      28.33       1.76
O      29.24      29.13       3.75
O      22.07      14.85       9.72
O      29.92      22.96       4.99
H      33.00      20.36       4.49
H      31.95      20.37       3.06
H      31.92      21.72       4.22
H      27.26      21.62       5.65
H      26.53      20.05       5.99
H      27.29      20.98       7.28
C      22.55      14.66       8.54
H      29.71      16.43       7.69
H      30.65      16.01       6.26
O      38.50      14.65       4.54
H      32.15      16.86       4.96
H      32.82      18.32       4.23
H      31.43      16.83       7.61
H      34.84      17.29       8.18
H      36.95      15.95       8.02
O      21.93      13.96       7.66
H      28.46      17.83       8.50
H      27.23      18.94       7.86
H      34.46      17.15       3.88
H      23.75      16.79       9.70
H      24.25      13.89       6.58
H      26.38      14.99       5.89
H      29.88      21.72       3.32
H      28.32      21.95       4.13
H      28.75      23.52       2.57
H      28.38      25.82       1.74
H      30.22      27.41       5.28
H      30.63      25.13       6.11
H      25.87      17.89       9.04
C      24.34      16.39       8.88
C      36.18      16.20       4.72
C      31.15      18.69       5.51
C      30.92      19.94       4.93
C      29.67      20.57       5.11
C      28.71      20.02       5.98
C      29.00      18.81       6.65
O      38.56      14.33       6.75
C      30.20      18.12       6.39
C      32.00      20.63       4.13
C      27.38      20.70       6.22
C      30.50      16.78       7.03
C      32.38      17.92       5.14
C      34.50      17.29       6.05
C      36.39      16.21       7.12
C      36.87      15.79       5.86
C      35.23      16.96       7.22
C      34.99      16.92       4.80
C      38.03      14.89       5.72
C      27.99      18.21       7.59
C      26.24      16.53       7.39
C      25.52      17.02       8.50
O      33.34      17.99       6.24
C      23.85      15.28       8.18
