69

C      30.86      22.38      31.04
H      29.55      25.55      29.10
O      32.45      27.27      28.72
O      36.10      22.74      29.05
O      29.94      21.46      30.36
O      31.62      33.09      26.14
O      32.75      33.58      28.02
O      40.96      18.50      28.60
O      41.11      19.29      30.68
O      24.78      20.12      33.94
O      24.24      19.15      31.99
H      29.19      21.98      32.96
H      30.69      26.43      27.96
C      27.89      20.32      30.26
H      30.75      28.31      26.83
C      25.06      19.80      32.73
H      30.70      30.69      26.22
H      25.98      19.35      30.23
C      32.14      24.91      28.51
C      33.40      24.36      28.18
C      33.75      23.08      28.66
C      32.93      22.42      29.60
C      31.72      23.02      29.99
C      31.28      24.23      29.40
C      34.35      25.17      27.33
C      33.33      21.11      30.22
C      29.91      24.76      29.76
C      31.77      26.24      27.93
C      32.32      28.57      28.31
C      31.43      29.00      27.32
C      31.39      30.35      26.98
C      32.22      31.29      27.62
C      33.09      30.84      28.63
C      33.16      29.50      28.97
C      32.19      32.72      27.24
C      35.00      22.42      28.15
C      37.21      21.93      29.01
C      38.17      22.20      30.00
C      39.27      21.36      30.13
C      39.46      20.26      29.27
H      35.37      24.77      27.37
C      38.53      20.05      28.24
C      40.57      19.31      29.51
H      34.27      20.71      29.83
H      33.47      21.21      31.31
H      32.55      20.35      30.08
C      27.28      20.98      32.91
H      34.04      25.17      26.28
H      34.38      26.21      27.68
C      37.41      20.87      28.10
C      28.80      21.08      31.03
C      28.50      21.40      32.36
H      29.17      23.96      29.75
C      26.37      20.23      32.15
H      29.92      25.18      30.78
C      26.69      19.91      30.82
H      33.76      31.55      29.10
H      38.03      23.04      30.66
H      32.11      26.33      26.89
H      34.87      21.34      28.11
H      36.70      20.68      27.30
H      31.45      21.81      31.77
H      33.85      29.13      29.72
H      38.68      19.23      27.55
H      27.03      21.24      33.93
H      35.25      22.76      27.14
H      28.15      20.08      29.24
H      40.00      21.55      30.91
H      30.28      23.13      31.58
