69

O      20.64       6.61      13.36
O      18.88       0.59      14.21
O      24.95       2.42      13.88
O      20.61      12.78      11.57
C      20.96       4.33      12.81
C      20.04       3.59      13.58
C      20.45       2.39      14.19
C      21.75       1.88      13.98
C      22.65       2.61      13.17
C      22.28       3.87      12.65
C      18.63       4.08      13.80
C      22.13       0.58      14.64
C      23.30       4.74      11.96
C      20.57       5.67      12.24
C      20.59       7.96      13.12
C      20.35       8.54      11.87
C      20.38       9.93      11.76
C      20.64      10.75      12.87
C      20.83      10.15      14.12
C      20.81       8.77      14.25
C      20.75      12.23      12.73
C      19.49       1.62      15.05
C      17.77      -0.06      14.67
C      17.20       0.12      15.94
C      16.04      -0.58      16.27
C      15.42      -1.45      15.37
C      16.02      -1.63      14.10
C      17.18      -0.96      13.76
C      14.15      -2.16      15.70
C      24.00       2.04      12.85
C      26.07       1.62      14.04
C      26.83       1.88      15.19
C      27.91       1.06      15.50
C      28.27      -0.01      14.66
C      27.55      -0.21      13.47
C      26.45       0.60      13.16
C      29.36      -0.94      15.06
H      18.37       4.92      13.15
H      17.90       3.29      13.60
H      18.48       4.40      14.84
H      23.11       0.20      14.33
H      22.17       0.70      15.73
H      21.38      -0.19      14.43
H      24.33       4.41      12.15
H      23.15       4.76      10.87
H      23.23       5.78      12.32
H      21.26       5.99      11.45
H      19.56       5.66      11.82
H      20.15       7.94      10.99
H      20.19      10.39      10.79
H      21.00      10.76      15.00
H      20.98       8.29      15.21
H      20.00       1.13      15.89
H      18.71       2.27      15.46
H      17.64       0.81      16.65
H      15.59      -0.44      17.25
H      15.56      -2.32      13.40
H      17.66      -1.11      12.79
H      23.95       0.94      12.79
H      24.37       2.39      11.87
H      26.55       2.71      15.84
H      28.49       1.21      16.41
H      27.85      -1.01      12.81
H      25.90       0.42      12.24
O      21.03      12.94      13.76
O      13.42      -2.58      14.73
O      13.82      -2.32      16.93
O      29.74      -1.85      14.21
O      29.85      -0.86      16.22
