22

Eu      -1.41      12.65      14.19
Eu      -3.20      14.79      16.73
C      -2.57      16.30      19.02
C      -1.74      16.73      20.18
O      -3.28      13.71      13.26
O      -0.10      12.40      16.26
O      -3.20      12.28      15.79
O      -4.77      12.93      17.23
O      -1.14      12.02      11.74
O      -2.26      10.62      13.05
O      -1.31      13.71      17.65
O      -4.49      15.03      14.64
O      -1.42      15.19      15.11
O       0.17      14.50      13.70
O      -3.45      15.40      19.18
O      -2.32      16.80      17.86
C      -4.25      14.50      13.51
C      -4.30      12.07      16.43
C      -2.02      11.12      11.89
C      -2.85      10.70      10.73
C      -0.34      12.92      17.40
C      -0.31      15.38      14.49
