22

Eu      10.06       5.78       1.26
Eu      11.86       7.92      -1.25
C       8.94       8.49       0.96
O       9.79       5.17       3.67
O      10.92       3.73       2.39
O      11.95       6.84       2.19
O       8.79       5.54      -0.82
O      11.86       5.42      -0.34
O      13.45       6.07      -1.76
O      12.13       8.53      -3.69
O      11.05       9.98      -2.39
O       9.97       6.88      -2.20
O      13.16       8.15       0.81
O      10.05       8.28       0.34
O       8.44       7.62       1.74
C      10.67       4.26       3.53
C      11.49       3.84       4.71
C      12.92       7.63       1.95
C      12.96       5.20      -0.97
C      11.27       9.45      -3.54
C      10.43       9.86      -4.71
C       9.02       6.08      -1.95
