16

C       9.67       5.59       2.37
C      10.41       6.01       1.16
C      11.36       5.16       0.57
O       8.79       6.40       2.85
C      12.04       5.55      -0.57
C      12.51       7.23      -2.37
H      11.55       4.19       1.04
C      11.77       6.80      -1.16
C      10.82       7.66      -0.57
H      12.78       4.90      -1.04
O       9.93       4.42       2.85
C      10.14       7.27       0.57
H      10.63       8.62      -1.04
O      13.39       6.42      -2.85
H       9.40       7.92       1.04
O      12.25       8.40      -2.85
