16

C      -3.97       7.66       9.10
O      -1.40       6.42      11.37
C      -5.12       5.59       6.16
C      -4.38       6.01       7.36
C      -4.64       7.27       7.95
H      -4.16       8.62       9.56
C      -3.43       5.16       7.95
H      -5.38       7.92       7.48
O      -2.54       8.40      11.37
C      -2.75       5.55       9.10
H      -3.23       4.19       7.49
O      -6.00       6.40       5.68
H      -2.01       4.90       9.56
C      -2.28       7.23      10.89
C      -3.02       6.80       9.68
O      -4.85       4.42       5.68
