33

C       9.37       2.67       0.88
H       9.35       5.60      -1.43
H      11.48       2.09      -5.86
C      11.42       8.25      -4.48
C       9.69       7.27      -3.58
H      12.81       0.57      -2.13
H       7.03       3.71      -1.11
C      12.00       1.43      -5.18
H       6.22       2.83       1.42
C      11.36       4.01      -3.71
H      10.37       1.42      -1.69
H      10.41       2.53       1.14
H      12.75       6.44      -4.33
C      10.64       5.03      -3.08
H      11.95       4.21      -4.60
N      13.11      -0.22      -4.11
H      11.99       9.04      -4.94
N      10.10       8.42      -4.11
N       8.96       3.20      -0.31
H       8.68       7.08      -3.23
H      12.97      -0.25      -6.25
N      10.71       6.35      -3.59
N      11.96       1.65      -3.81
N       8.33       2.48       1.68
C      11.28       2.72      -3.17
C      10.49       2.44      -2.05
C      12.65       0.62      -3.20
C      11.82       6.97      -4.17
C       7.58       3.35      -0.26
C       9.79       3.49      -1.44
C       7.21       2.89       0.98
C      12.71       0.27      -5.34
C       9.86       4.79      -1.94
