22

C      -0.62      11.88      19.63
C       0.73      14.09      19.65
C       2.04      16.17      19.65
H      -0.78      13.98      21.19
H       2.63      12.88      16.46
C       0.42      12.81      19.07
C      -0.01      14.60      20.76
C       3.67      15.11      17.30
O       4.39      15.87      18.05
C       1.79      14.89      19.08
O      -0.69      11.74      20.90
C       2.11      13.20      17.36
O       3.94      14.91      16.08
O      -1.38      11.26      18.82
C       1.09      12.41      17.92
H       0.83      11.45      17.47
H       1.50      17.64      21.11
H       2.83      16.77      19.22
C       1.30      16.65      20.71
C       2.49      14.41      17.93
C       0.26      15.86      21.26
H      -0.34      16.25      22.09
