29

C       2.62      -0.03      10.27
C       1.85      -1.01      10.91
C       2.10      -2.37      10.68
C       3.11      -2.75       9.79
C       3.88      -1.77       9.16
C       3.65      -0.41       9.41
C       3.08       2.44      10.33
C       0.64       5.18      11.46
C       1.09       3.95      10.98
C       2.46       3.72      10.84
C       3.34       4.77      11.17
C       2.82       5.97      11.65
C       1.32      -3.38      11.47
C       4.98      -2.14       8.22
H       1.47       1.46      11.11
H       1.05      -0.75      11.60
H       3.30      -3.80       9.60
H       4.28       0.34       8.93
H      -0.42       5.40      11.57
H       0.34       3.21      10.69
H       4.41       4.63      11.04
H       3.46       6.80      11.95
N       2.30       1.32      10.55
N       1.49       6.17      11.80
O       4.19       2.43       9.79
O       0.38      -2.91      12.19
O       1.66      -4.60      11.37
O       4.80      -3.16       7.49
O       6.01      -1.37       8.23
