29

H       5.50       3.92       4.55
H       5.92       1.72       5.04
H       3.68      -1.34       3.04
H       2.69       2.80       2.38
H       7.39       7.87       5.01
H       6.63       5.67       4.13
H       2.56       7.10       4.49
H       3.51       9.26       5.39
N       4.67       3.79       3.99
N       5.48       8.63       5.24
O       2.78       4.90       3.23
O       6.59      -0.45       5.63
O       5.31      -2.14       4.81
O       2.17      -0.70       0.93
O       0.97       1.09       1.68
C       4.35       2.44       3.71
C       5.12       1.45       4.35
C       4.87       0.10       4.13
C       3.87      -0.28       3.23
C       3.09       0.70       2.61
C       3.32       2.06       2.85
C       3.90       4.91       3.77
C       6.33       7.64       4.90
C       5.89       6.41       4.42
C       4.51       6.19       4.28
C       3.63       7.24       4.61
C       4.15       8.43       5.09
C       5.66      -0.92       4.91
C       1.99       0.33       1.66
