22

Cr       1.97      14.06      14.79
Cr       0.26      14.02      11.78
Cr       3.72      14.00      11.81
C      -0.33      15.97      13.99
O       3.39      15.55      15.08
C       2.11      15.92      10.19
O       0.62      15.45      14.67
C       4.20      15.95      14.19
C      -0.41      12.19      14.05
O      -0.68      15.54      12.83
O       1.05      15.38      10.65
C       2.06      12.04      10.26
C       3.57      11.97      13.92
O       3.29      15.47      10.45
O       4.32      15.40      13.05
O       3.35      12.57      15.10
O       0.59      12.68      14.68
O      -0.71      12.55      12.85
O       1.02      12.61      10.67
O       3.26      12.48      10.46
O       4.29      12.63      13.06
O       1.98      14.02      12.80
