18

Nd       2.22       3.87      19.38
C       1.89       3.26      22.72
H       1.35       5.56      17.27
O       2.65       3.08      17.05
H       2.94       1.02      20.15
O       0.83       4.93      17.40
O       3.19       4.86      21.49
O       3.38       6.04      18.82
O       3.07       1.47      19.47
O       4.64       3.48      19.20
O       0.40       2.27      18.92
C       1.77       3.03      16.13
C       0.66       4.13      16.22
C       2.91       4.43      22.66
C       3.35       6.88      17.90
C       4.43       1.09      19.15
C       5.27       2.39      19.07
O       1.42       2.84      21.62
