18

O       2.98       0.76       5.71
C       4.76       2.75       7.80
O       1.16      -1.08       6.05
Nd       2.55      -0.02       8.03
C       2.10       0.81       4.79
C       0.99      -0.29       4.87
O       3.51      -1.02      10.15
C       3.24      -0.58      11.32
C       5.60       1.45       7.73
H       3.27       2.82       8.80
H       1.67      -1.71       5.92
C       2.21       0.58      11.37
O       1.75       1.01      10.28
O       3.71      -2.20       7.48
O       3.40       2.37       8.13
O       4.97       0.36       7.85
O       0.73       1.57       7.57
C       3.68      -3.03       6.55
