18

O       2.07       1.65       3.87
Nd       3.23       3.82       3.31
O       2.38       6.22       3.22
O       0.81       4.20       3.49
O       5.06       5.41       3.77
C       2.10       0.81       4.79
C       1.02       6.59       3.54
C       0.18       5.29       3.62
C       2.54       3.26       0.03
H       4.11       2.13       5.42
O       4.03       4.85       1.07
H       2.51       6.66       2.54
C       3.68       4.65       6.55
O       2.80       4.60       5.64
C       3.57       4.43      -0.03
O       4.62       2.76       5.29
O       2.27       2.82       1.20
C       4.79       3.56       6.47
