128

V       6.63      11.75      10.38
V       3.13      -2.74      10.24
V       2.47      -5.62      20.55
V       6.01      14.63       0.07
H       1.17       6.09      17.21
H       4.14       2.95       3.40
H       0.43      10.11       0.39
H       5.10      -1.14      20.24
H       0.30       0.68      18.08
H       5.45       8.28       2.56
H       1.60       4.01      10.91
H       3.70       5.06       9.69
H       1.46       1.78       9.92
H       4.00       7.28      10.69
H       0.68       0.04      13.72
H       4.99       8.95       6.91
H       1.40       5.81      15.19
H       3.88       3.25       5.42
H       0.49       0.32      15.75
H       5.22       8.66       4.89
H       0.26       2.12      20.02
H       5.42       6.84       0.62
H       2.68       0.21       4.36
H       6.64      -3.88      16.84
H       1.07       0.97       4.60
H       6.41       9.16      16.37
H       2.74      -0.38       6.57
H       6.72      -3.30      14.64
H       2.71      12.51       3.69
H       4.51      -2.50      17.14
H       2.77      11.91       5.90
H       4.58      -1.91      14.92
H       6.16      12.62       3.85
H       2.62       9.03      16.21
H       6.18      -0.42       4.32
H       4.11       8.07      16.01
H       6.24      -1.00       6.51
H       4.19       8.66      13.79
H       6.23      12.04       6.05
H       2.69       9.63      14.00
H       1.21      11.54       3.47
H       2.90      -3.26      16.88
H       1.27      10.95       5.69
H       2.98      -2.67      14.67
H       1.58       5.45      12.85
H       3.66       3.62       7.75
H       1.13       0.38       6.82
H       6.48       9.75      14.18
C       4.60      11.19      12.71
C       1.11      -2.18       7.91
C       4.61       9.57       9.41
C       1.08      -0.55      11.21
C       1.04       0.79      11.79
C       4.53       8.23       8.83
C       0.81       5.35      19.15
C       4.61       3.66       1.48
C       1.39       3.16      11.55
C       3.99       5.89       9.05
C       1.31       1.90      10.98
C       4.16       7.15       9.63
C       0.86       0.94      13.16
C       4.72       8.07       7.46
C       0.98       2.21      13.78
C       4.53       6.81       6.84
C       1.24       3.33      12.94
C       4.16       5.72       7.67
C       0.86       2.41      15.19
C       4.67       6.60       5.43
C       1.01       3.72      15.74
C       4.44       5.30       4.88
C       1.27       4.80      14.86
C       4.08       4.25       5.75
C       1.38       4.60      13.49
C       3.94       4.46       7.12
C       0.61       1.33      16.08
C       5.03       7.65       4.55
C       0.50       1.53      17.45
C       5.17       7.44       3.19
C       0.62       2.80      17.99
C       4.96       6.18       2.64
C       0.89       3.92      17.15
C       4.59       5.09       3.47
C       0.47       2.97      19.38
C       5.14       6.01       1.26
C       0.54       4.24      19.95
C       4.97       4.75       0.68
C       0.99       5.19      17.77
C       4.41       3.83       2.85
C       1.64       0.02       4.72
C       5.92      10.15      16.24
C       1.68      -0.38       6.22
C       5.98      10.55      14.75
C       1.67      12.37       4.07
C       3.96      -3.26      16.53
C       6.67      13.43       4.43
C       3.68       9.09      15.88
C       0.85      13.67       3.86
C       4.59      -4.66      16.76
C       1.05      -1.78       6.44
C       4.55      10.79      14.18
C       1.71      11.97       5.57
C       4.01      -2.86      15.03
C       6.71      13.03       5.92
C       3.73       9.49      14.38
C       4.53       2.33       0.90
C       0.77       6.69      19.72
C       4.52      -5.06      18.23
C       0.81      14.07       2.39
O       3.44      10.18       9.57
O       7.16      -1.16      11.05
O       5.79      11.28      12.16
O       2.31      -2.26       8.46
O       5.83      10.04       9.65
O       2.30      -1.02      10.97
O       7.08      12.36       8.52
O       3.58      -3.35      12.10
O       4.77      -2.12       9.94
O       1.03      11.13      10.68
O       5.57       9.48      18.83
O       2.11      -0.47       1.79
O       3.31       1.85       0.66
O       6.80       7.16      19.96
O       3.30      -5.14      18.77
O       6.84      14.16       1.85
O       1.93       7.30      19.88
O       5.69       1.72       0.74
O       4.38      14.01       0.37
O       0.82      -4.99      20.25
