18

C      18.47      16.09      12.80
C      16.16      15.18       9.29
C      17.50      14.47      11.28
C      16.99      15.51      10.49
H      19.03      16.33      13.69
C      18.23      14.76      12.43
H      17.32      13.43      10.99
H      16.87      17.66      10.22
C      18.83      13.68      13.26
C      17.24      16.84      10.83
C      17.98      17.11      11.98
N      18.25      18.51      12.35
O      15.96      13.96       9.01
O      15.68      16.15       8.59
O      19.41      13.98      14.36
O      18.84      12.46      12.83
O      18.85      18.71      13.43
O      17.87      19.40      11.58
