18

C      19.62       8.41       9.52
H      20.01       7.18       7.80
N      18.20       8.61       9.15
H      23.32       7.87      10.49
H      19.45       9.63      11.29
O      23.25       9.28      12.51
O      21.28      10.29      12.90
O      22.09       6.05       7.14
O      23.76       6.15       8.62
O      17.82       8.12       8.08
O      17.49       9.26       9.93
C      20.42       7.63       8.70
C      22.03       9.51      12.21
C      22.28       8.03      10.21
C      21.46       8.84      11.01
C      21.76       7.43       9.06
C      22.59       6.53       8.22
C      20.11       9.02      10.68
