22

Fe       7.39       6.16       4.26
Fe       5.76       3.33       4.26
Fe       9.03       3.33       4.26
C       5.12       5.59       2.37
C       7.39       1.64       2.37
C       9.67       5.59       2.37
C       5.12       5.59       6.16
C       9.67       5.59       6.16
C       7.39       1.64       6.16
O       6.00       6.40       2.85
O       6.25       2.00       2.85
O       9.93       4.42       2.85
O       4.85       4.42       5.68
O       8.79       6.40       5.68
O       8.53       2.00       5.68
O       5.99       6.40       5.68
O       6.25       2.00       5.68
O       9.93       4.42       5.68
O       4.85       4.42       2.84
O       8.79       6.40       2.85
O       8.53       2.00       2.84
O       7.39       4.27       4.26
