16

O       6.47      12.61       2.60
O       7.38      14.22       8.73
H       7.34      13.04       4.93
H       3.31      14.34       4.20
O       8.57      13.30       7.05
H       3.27      15.47       6.43
O       4.23      12.81       2.51
H       5.22      15.25       7.96
C       5.34      12.97       3.09
C       6.45      13.57       5.26
C       5.33      13.63       4.43
C       4.18      14.31       4.86
C       7.53      13.89       7.49
C       6.40      14.13       6.55
C       5.25      14.82       6.96
C       4.15      14.93       6.11
