16

O       5.98       3.36      18.27
H       7.19       1.79      16.60
H       4.19      -0.08      19.06
O       5.33      -3.72      18.40
O       3.46      -2.53      18.73
O       4.36       2.34      19.38
H       6.64      -2.49      16.46
H       7.79      -0.43      15.65
C       4.66      -2.63      18.34
C       5.34      -1.41      17.80
C       4.99      -0.16      18.32
C       5.68       0.99      17.92
C       6.68       0.89      16.94
C       7.02      -0.36      16.40
C       6.37      -1.51      16.85
C       5.32       2.28      18.55
