16

C       2.59       2.63       8.97
C       1.91       1.41       8.43
C       2.26       0.16       8.95
C       1.57      -0.99       8.55
C       0.57      -0.89       7.57
C       0.23       0.36       7.03
C       0.88       1.51       7.48
O       1.27      -3.36       8.90
H       3.06       0.08       9.69
H       0.06      -1.79       7.23
O       1.93       3.72       9.04
O       3.79       2.53       9.36
O       2.89      -2.34      10.01
C       1.93      -2.28       9.18
H       0.61       2.49       7.09
H      -0.54       0.43       6.28
