16

C       5.33      11.61      13.80
C       5.25      10.42      16.33
O       6.47      12.62      11.97
O       7.38      11.02      18.10
H       7.34      12.19      14.30
H       3.31      10.90      13.57
H       5.22       9.99      17.33
O       4.23      12.42      11.88
C       6.45      11.67      14.63
C       5.34      12.27      12.46
C       4.18      10.93      14.23
C       7.53      11.35      16.86
C       6.40      11.11      15.92
O       8.57      11.94      16.42
H       3.27       9.76      15.80
C       4.15      10.31      15.48
