16

H      10.31       0.08      18.42
O       9.18       3.72      19.07
H       7.32      -1.79      20.88
H       7.87       2.49      21.02
O      11.05       2.53      18.75
O       8.52      -3.36      19.21
O      10.15      -2.34      18.10
H       6.71       0.43      21.83
C       9.84       2.63      19.14
C       9.16       1.41      19.67
C       9.52       0.16      19.16
C       8.83      -0.99      19.56
C       7.82      -0.89      20.54
C       7.49       0.36      21.07
C       8.14       1.51      20.63
C       9.18      -2.28      18.93
