16

H       4.19       8.49       9.69
C       5.34       9.82       8.43
H       7.79       8.84       6.28
C       5.68       7.43       8.55
C       4.99       8.58       8.95
C       4.66      11.04       8.97
O       5.33      12.14       9.04
C       6.37       9.92       7.48
O       3.46      10.94       9.36
H       6.64      10.90       7.09
C       7.02       8.77       7.03
C       6.68       7.52       7.57
H       7.19       6.62       7.23
O       5.98       5.05       8.90
C       5.32       6.13       9.18
O       4.36       6.07      10.01
