68

Na       1.68       1.06       5.33
Na       7.36      11.81      10.72
Cu      10.54       1.80       2.68
Cu       7.46       9.99       8.03
H      12.89       7.76       1.59
H      11.80       5.54       1.84
H      12.45       5.66       6.08
H      13.53       7.91       5.86
H       4.14       1.97       3.76
H       6.61       2.11       3.52
H       9.49       3.70       9.99
H       7.00       3.58      10.21
H       5.01       4.06       9.14
H       6.12       6.28       8.98
H       5.55       6.27       4.72
H       4.45       4.03       4.87
H      13.87       9.91       6.93
H      11.40       9.77       7.08
H       8.39       8.14       0.63
H      10.88       8.28       0.48
C      13.28       7.97       3.71
C      12.79       7.31       2.57
C      12.17       6.07       2.71
C      12.06       5.47       3.98
C      12.54       6.15       5.11
C      13.14       7.40       4.98
C      13.93       9.28       3.49
C      11.52       4.08       4.08
C       3.79       1.69       1.64
C       4.60       1.89       2.78
C       5.98       1.97       2.65
C       6.57       1.84       1.38
C       5.77       1.67       0.24
C       4.38       1.60       0.37
C       2.33       1.61       1.86
C       8.07       1.79       1.29
C       4.68       3.89       7.01
C       5.14       4.53       8.17
C       5.75       5.78       8.09
C       5.89       6.41       6.84
C       5.44       5.77       5.68
C       4.83       4.52       5.76
C       4.05       2.55       7.07
C       6.44       7.80       6.73
C      14.16      10.15       9.06
C      13.39       9.98       7.90
C      12.00       9.91       7.98
C      11.37      10.02       9.23
C      12.13      10.19      10.39
C      13.52      10.26      10.31
C      15.64      10.21       9.00
C       9.87      10.06       9.33
O      14.35       9.56       2.30
O      14.06      10.18       4.40
O      11.73       3.38       5.10
O      10.89       3.69       3.02
O       1.91       1.34       3.05
O       1.46       1.85       0.96
O       8.64       1.34       0.27
O       8.67       2.23       2.36
O       3.70       2.13       8.27
O       3.87       1.83       6.05
O       6.26       8.50       5.72
O       7.09       8.16       7.82
O      16.16      10.37       7.80
O      16.36      10.09      10.01
O       9.29      10.50      10.34
O       9.28       9.61       8.24
