18

C       5.43      12.53       9.02
C       4.09      12.86       9.19
C       4.03      13.18       4.63
C       5.42      13.36       4.59
C       3.33      12.48       3.55
N       6.11      13.19       8.05
C       5.79      11.13       9.23
N       3.40      13.38       8.14
N       3.37      13.45       5.79
N       6.10      13.60       5.74
O       2.12      12.04       3.77
O       3.98      12.01       2.50
H       3.54      12.50      10.05
H       5.95      13.25       3.66
C       4.04      13.60       6.95
C       5.45      13.59       6.93
O       5.70      10.32       8.20
O       6.52      10.79      10.28
