18

N       8.92      13.40       4.70
N       8.15      12.37       2.27
O       9.41      15.57      -0.90
O      10.32      17.25       0.28
H       9.39      17.37       2.71
H       8.07      10.49       3.23
C       8.66      12.07       4.58
C       8.28      11.54       3.34
C       9.36      16.36       0.14
C       8.62      11.22       5.77
C       9.07      16.34       2.62
O       9.64      11.22       6.61
O       7.55      10.49       6.00
C       8.78      15.78       1.36
C       8.78      14.23       3.63
C       8.38      13.70       2.39
N       8.33      14.50       1.31
N       9.05      15.55       3.73
