34

H       2.39       4.61      19.01
H       2.31       2.14      19.38
H       6.23       1.78      17.61
H       6.31       4.27      17.29
H       4.51      -2.43      21.08
H       8.62      -3.66      21.39
H       9.35      -1.56      20.31
H       9.61       0.72      20.22
H       9.45      -0.07      18.61
H       9.06       1.66      18.80
S       4.18       0.08      18.77
O       3.35       6.72      18.32
O       5.37       6.57      17.35
O       2.82      -0.30      19.09
O       4.92      -0.64      17.74
O       5.05       0.02      20.19
O       4.86      -4.73      22.04
O       6.98      -5.05      22.70
O       7.64       0.43      19.56
C       4.37       6.06      17.92
C       4.35       4.58      18.14
C       3.23       3.99      18.73
C       3.18       2.61      18.92
C       4.27       1.83      18.51
C       5.40       2.40      17.92
C       5.44       3.79      17.74
C       5.98      -1.02      20.39
C       5.57      -2.23      20.93
C       6.52      -3.19      21.31
C       7.88      -2.92      21.09
C       8.29      -1.73      20.50
C       7.35      -0.75      20.14
C       6.10      -4.40      22.05
C       9.04       0.68      19.28
