80

Gd       5.98      12.78       3.57
Gd       7.60      16.85       8.35
Gd       6.45       6.93       4.15
Gd       2.00      16.37      -0.13
Gd       3.86      13.87      -3.44
Gd       7.27      10.01       7.05
Gd       8.60      19.88      11.38
Gd       7.66      10.05       0.57
C       8.50      13.96       5.28
C       9.27      12.70       3.42
C       7.26      14.40       6.00
C       8.83      11.85       2.36
C       5.16      15.82       0.33
C       4.79      17.27      -1.51
C       4.49      15.06       1.41
C       3.76      18.00      -2.22
C       9.31       5.92       2.91
C       9.67       7.65       4.49
C       8.25       5.08       2.28
C       9.00       8.51       5.41
C      10.52      18.17       7.77
C      10.57      16.76       9.67
C       9.66      18.66       6.68
C       9.78      15.85      10.47
C       6.79      12.16      10.80
C       0.64      13.60      -2.99
C       7.97      11.91       9.91
C       1.09      14.41      -1.91
C       4.67      11.25      -0.22
C       4.53       9.67       1.54
C       5.62      11.90      -1.16
C       5.25       8.76       2.37
C       7.73       7.75      -3.13
C       5.40      19.43      10.86
C       8.81       8.33      -2.30
C       6.04      18.59       9.91
C       4.41       8.61       7.96
C       4.08      10.15       6.18
C       5.45       8.02       8.83
C       4.73      10.98       5.22
N       8.23      13.19       4.20
N       4.31      16.61      -0.39
N       8.82       6.78       3.83
N       9.87      17.30       8.61
N       7.11      12.80      11.95
N       5.29      10.32       0.59
N       8.22       7.00      -4.16
N       4.94       9.51       7.06
O       6.15      14.14       5.45
O       7.36      15.01       7.11
O       7.48      11.73       2.23
O       9.52      11.12       1.54
O       3.22      15.19       1.49
O       5.19      14.33       2.19
O       2.54      17.92      -1.76
O       9.53      18.30      12.57
O       7.07       5.22       2.73
O       1.13      17.81       1.35
O       7.66       8.32       5.46
O       9.46       9.44       6.17
O       8.45      18.24       6.66
O       5.34       5.91       5.79
O       8.55      15.64      10.11
O      10.30      15.25      11.49
O       9.10      12.22      10.41
O       7.82      11.44       8.74
O       2.41      14.66      -1.86
O       0.36      14.98      -1.00
O       6.85      11.59      -1.03
O       5.20      12.71      -2.07
O       6.56       8.59       2.16
O       4.69       8.10       3.32
O      10.01       8.19      -2.73
O       8.52       8.90      -1.19
O       7.39      18.67       9.90
O       5.52      17.75       9.09
O       6.65       8.36       8.58
O       5.12       7.23       9.80
O       6.06      11.11       5.34
O       4.14      11.60       4.26
