33

H       5.34       7.34      14.83
H       8.37       7.74      17.73
H       5.99       8.74      18.79
H       3.66       8.32      18.95
H       0.39      10.27      16.90
H       3.93       9.14      14.72
H       3.23      11.21      13.57
H      -0.53       9.57      14.71
H      -0.70      10.73      12.17
H       2.88       9.23      20.73
H      -1.24       9.83      21.34
H      -0.78       9.71      18.62
N       7.15       7.37      16.00
N       5.26       8.19      16.82
N       1.27       9.44      19.29
N       0.90       9.54      21.49
N       1.53      10.25      14.50
N       1.37      11.18      12.50
C       5.86       7.60      15.74
C       7.39       7.82      17.29
C       6.22       8.32      17.82
C       3.94       8.73      16.85
C       3.25       8.77      18.05
C       1.97       9.34      18.07
C       1.38       9.83      16.89
C       2.10       9.74      15.70
C       3.39       9.20      15.66
C       2.20      10.92      13.50
C       0.20      10.10      14.10
C       0.13      10.67      12.85
C       1.82       9.37      20.56
C      -0.30       9.71      20.81
C      -0.10       9.67      19.46
