33

H       8.18       7.34      11.20
H       6.31       9.80      14.07
H       5.09      10.22      11.60
H       6.75       5.13       7.26
H       8.65       4.14       5.49
H       8.81       8.34       5.36
H       7.16       6.83       9.16
H       5.85      10.91       9.67
H       6.56       9.36       5.70
H       4.32      12.16       8.64
H       6.83      11.59       5.26
N       7.51       8.38      12.95
N       6.55       8.75      10.98
N       7.55       7.03       6.53
N       5.70      11.51       7.11
N       4.80      13.52       7.04
N       9.05       6.22       5.11
H       5.71      14.13       5.18
C       7.51       8.05      11.66
C       6.52       9.34      13.10
C       5.91       9.58      11.90
C       7.48       5.64       6.63
C       8.40       5.16       5.73
C       8.51       7.33       5.60
C       6.94       8.01       7.36
C       6.86       7.79       8.74
C       6.46       8.85       9.56
C       6.09      10.08       9.02
C       6.09      10.24       7.63
C       6.52       9.22       6.78
C       4.87      12.39       7.74
C       6.18      12.11       5.95
C       5.61      13.36       5.92
