16

C       4.04       3.97       8.25
C       3.57       5.36       8.62
C       3.34       6.33       7.63
C       2.92       7.62       7.95
O       3.12       3.10       8.07
O       5.28       3.76       8.15
Br       2.64       7.51      12.12
Br       3.64       4.39      11.31
C       2.23       9.38       9.66
C       2.71       7.98       9.30
C       2.93       7.02      10.29
C       3.35       5.72       9.96
Br       3.64       5.84       5.79
Br       2.64       8.95       6.60
O       3.16      10.24       9.84
O       1.00       9.58       9.77
