192

Er      17.33       7.62      12.54
Er      18.56      12.64       7.50
Er      25.26      13.75       8.83
Er      10.63       8.73      13.87
Er      21.29      12.54      13.75
Er      22.53       7.50       8.73
Er      13.36       8.83       7.62
Er      14.59      13.87      12.64
Er       6.48       6.63      15.95
Er      21.12      15.85       6.75
Er      14.42      14.74       5.42
Er      13.18       5.52      14.62
Er      10.45      15.95      14.74
Er      25.09       6.75       5.52
Er      10.45       5.42      20.87
Er      17.15      14.62      15.85
C      18.30      10.35      10.25
C      16.77       9.02       9.59
C      16.91      10.03       8.65
C      16.29      10.33       7.36
C      15.87       7.87       9.70
C      16.31      10.82      13.06
C      14.71       9.44      13.45
C      14.23      10.74      13.55
C      12.89      11.31      13.79
C      14.15       8.10      13.61
C      10.36      11.02      11.12
C       8.83      12.35      11.78
C       8.97      11.33      12.72
C       8.36      11.03      14.00
C      23.80      13.50      11.67
C      24.24      10.54       8.31
C      22.65      11.93       7.91
C      22.17      10.62       7.82
C      20.83      10.06       7.58
C      22.09      13.26       7.75
C      22.27      10.25      11.02
C      20.73       9.59      12.35
C      20.88       8.65      11.33
C      20.26       7.36      11.03
C      19.84       9.70      13.50
C      20.28      13.06      10.54
C      18.68      13.45      11.93
C      18.20      13.55      10.62
C      16.86      13.79      10.06
C      18.12      13.61      13.26
C      14.33      11.12      10.35
C      12.80      11.78       9.02
C      12.94      12.72      10.03
C      12.32      14.00      10.33
C      11.90      11.67       7.87
C      12.34       8.31      10.82
C      10.75       7.91       9.44
C      10.27       7.82      10.74
C       8.93       7.58      11.31
C      10.18       7.75       8.10
C      21.39      18.14       3.99
C      22.92      19.47       4.66
C      22.77      18.46       5.60
C      23.39      18.16       6.88
C      23.81      20.62       4.55
C      15.44      17.66      15.43
C       9.10       4.81      15.04
C       9.57       3.50      14.94
C      10.92       2.94      14.70
C       9.66       6.14      14.88
C      13.45       3.23      17.37
C      14.98       1.90      16.71
C      14.84       2.91      15.77
C      15.45       3.21      14.49
C      15.88       0.74      16.82
C      23.37       3.70       5.94
C      17.03      16.56       6.33
C      17.51      17.86       6.43
C      18.85      18.43       6.67
C      17.60      15.22       6.49
C      25.35       3.99       3.23
C      26.89       4.66       1.90
C      26.74       5.60       2.91
C      27.36       6.88       3.21
C      11.91      18.79      14.99
C      19.41      15.43       3.70
C      13.06      15.03      16.56
C      21.48      14.94       3.62
C      22.82      14.70       4.19
C      13.63      14.88      15.22
C      17.42      17.37      18.14
C      18.95      16.71      19.47
C      18.81      15.77      18.46
C      19.42      14.49      18.16
C      11.91      16.82       6.38
C      11.47       5.94      17.66
C      13.06       6.33      19.05
C      13.54       6.43      17.75
C      14.88       6.67      17.18
C      21.56       6.49       6.14
N      17.89      10.88       9.09
N      17.67       9.21      10.60
N      16.05       9.52      13.10
N      15.27      11.61      13.30
N       9.95      10.49      12.28
N       9.74      12.16      10.76
N      23.98      11.85       8.26
N      23.21       9.75       8.07
N      21.86       9.09      10.49
N      21.64      10.60      12.16
N      20.02      13.10      11.85
N      19.24      13.30       9.75
N      13.92      12.28      10.88
N      13.71      10.76       9.21
N      12.08       8.26       9.52
N      11.30       8.07      11.61
N      21.80      17.61       5.15
N      22.01      19.28       3.64
N       7.76       4.73      15.39
N      16.48      16.87      15.19
N      13.86       3.75      16.21
N      14.07       2.09      17.73
N      15.70      16.64       5.98
N      24.41       4.49       6.17
N      25.76       5.15       3.75
N      10.10      17.89      16.33
N      11.73      15.39      16.64
N      20.44      15.19       4.49
N      17.83      16.21      17.61
N      18.04      17.73      19.28
N      11.73       5.98      18.97
N      12.51       6.17      16.87
O      16.79      11.34       6.72
O      15.32       9.70       6.88
O      14.88       7.75       8.94
O      16.14       7.04      10.62
O      12.82      12.56      13.62
O      11.95      10.58      14.16
O      12.98       7.88      14.07
O      14.89       7.13      13.29
O       8.85      10.02      14.65
O      23.25      11.67      14.49
O      22.82      13.61      12.43
O      24.08      14.32      10.75
O      20.75       8.81       7.75
O      19.89      10.79       7.20
O      20.92      13.49       7.29
O      22.82      14.24       8.08
O      20.76       6.72      10.02
O      19.29       6.88      11.67
O      18.85       8.94      13.61
O      20.11      10.62      14.32
O      16.78      13.62       8.81
O      15.92      14.16      10.79
O      16.95      14.07      13.49
O      18.85      13.29      14.24
O      12.82      14.65      11.34
O      11.35      14.49       9.70
O      10.91      12.43       7.75
O      12.17      10.75       7.04
O       8.85       7.75      12.56
O      23.86       7.20      10.58
O      24.89       7.29       7.88
O      10.92       8.08       7.13
O      22.89      17.15       7.53
O      24.37      18.79       7.37
O       8.93       6.49      19.55
O       7.67       7.20      17.87
O      18.93      15.93      14.87
O      11.86       3.67      14.32
O      10.83       6.37      14.42
O       8.92       7.12      15.20
O      14.96       4.22      13.84
O      16.43       2.58      14.00
O       8.93      14.87      16.06
O      15.61      14.16       3.50
O      26.87       5.44       6.50
O      19.79      17.70       7.04
O      18.77      15.00       6.95
O      16.86      14.25       6.17
O      26.86       7.53       4.22
O       4.52       7.37      16.82
O       4.96       5.30      14.87
O      11.64      17.87      14.16
O      22.90      14.87       5.44
O      15.83      14.32      17.70
O      14.80      14.42      15.00
O      12.89      15.20      14.25
O      18.93      13.84      17.15
O      12.46      14.00       4.54
O      12.90      16.06       6.49
O      11.64       3.50      21.45
O      14.96       6.50      15.93
O      15.83       7.04      17.91
O      22.73       6.95       6.37
O      20.83       6.17       7.12
