10

H      -1.91       5.57       7.61
H      -4.38       6.72       7.61
O      -2.83       3.27       7.15
O      -4.78       4.16       7.68
O      -3.46       9.02       7.15
O      -1.51       8.13       7.68
C      -3.54       4.26       7.48
C      -2.84       5.57       7.56
C      -2.75       8.03       7.48
C      -3.45       6.72       7.56
