10

O       5.34       0.82       6.22
O       7.28      -0.06       5.68
H       4.42      -1.47       5.75
O       5.96      -4.92       6.22
H       6.88      -2.62       5.75
O       4.01      -4.03       5.68
C       6.05      -0.16       5.89
C       5.35      -1.48       5.80
C       5.25      -3.93       5.89
C       5.95      -2.62       5.80
