48

C      12.78       7.53      28.07
C       3.40      10.32      22.44
C       8.24       3.23      20.20
H       6.91      11.10      23.89
C       7.71       2.47      17.87
H      11.25       6.63      23.78
C      10.46       8.07      27.29
H       6.79       6.75      19.42
H       4.14       8.35      22.07
H       8.59       3.97      22.19
C       3.66      11.59      22.98
O       1.57      12.42      22.28
C      11.73       7.53      27.02
H       8.49       8.44      26.54
O      12.56       8.22      29.12
C       7.70       3.50      18.94
C       5.92      10.87      23.50
C      11.02       7.01      24.77
C       5.65       9.59      22.98
C       7.17       5.75      19.66
C       9.74       7.54      25.03
C       4.37       9.34      22.45
C       8.22       4.21      21.19
C       7.69       5.49      20.94
C       9.48       8.06      26.31
H       5.94       7.54      21.22
H       7.70       9.29      24.73
C       6.70       8.54      22.98
H       9.44       5.78      22.98
C       8.69       7.54      23.98
C       7.69       6.54      21.98
H       5.13      12.84      23.94
H      12.98       6.58      25.56
C       6.71       7.54      21.99
H       6.74       4.97      17.69
C       7.69       8.53      23.97
H       2.41      10.13      22.02
H       8.65       2.25      20.40
O       2.85      13.69      23.68
C       8.68       6.55      22.98
O      13.83       6.83      27.85
H      10.27       8.49      28.27
O       6.98       2.71      16.85
O       8.44       1.44      18.05
C       4.93      11.85      23.52
C      12.00       6.99      25.75
C       2.62      12.64      22.98
C       7.15       4.77      18.68
