22

H      13.21      -0.08      17.15
H      17.43      -0.07      13.49
H      12.66      -0.06      12.89
H      17.98      -0.09      17.75
H      15.12      -0.06      12.54
H      15.52      -0.09      18.10
C      11.30      -0.07      15.21
C      19.34      -0.07      15.44
C      12.79      -0.07      15.05
C      17.85      -0.08      15.59
C      15.04      -0.08      15.98
C      15.60      -0.07      14.66
O      10.80      -0.08      16.39
O      10.63      -0.07      14.12
O      20.01      -0.08      16.53
O      19.84      -0.07      14.25
C      13.63      -0.08      16.15
C      17.01      -0.07      14.49
C      13.34      -0.06      13.74
C      17.30      -0.08      16.91
C      14.71      -0.06      13.55
C      15.94      -0.08      17.09
