48

C      17.97      22.87      28.07
C      27.37      20.08      22.43
C      23.09      27.98      17.90
C      22.55      27.19      20.22
H      23.87      19.30      23.89
C      20.28      22.33      27.28
H      19.50      23.78      23.77
H      23.99      23.68      19.42
H      26.63      22.06      22.08
H      22.18      26.43      22.19
C      27.11      18.82      22.98
H      22.25      21.95      26.54
O      22.40      29.03      18.12
O      18.19      22.09      29.06
C      19.01      22.88      27.01
C      23.09      26.93      18.95
C      24.86      19.54      23.51
C      19.74      23.40      24.76
C      23.61      24.67      19.66
C      25.12      20.82      22.98
C      21.01      22.87      25.02
C      26.40      21.07      22.46
C      23.08      24.92      20.94
C      22.56      26.20      21.20
C      21.27      22.34      26.30
H      24.83      22.87      21.24
H      23.06      21.11      24.73
H      21.32      24.62      22.98
C      24.07      21.87      22.98
C      22.07      22.87      23.98
C      23.08      23.87      21.98
H      25.65      17.57      23.95
H      17.77      23.85      25.55
H      24.05      25.46      17.70
C      24.06      22.87      22.00
C      23.07      21.88      23.97
H      28.36      20.28      22.01
C      22.09      23.85      22.98
O      28.00      16.80      23.80
H      22.13      28.17      20.42
H      20.47      21.91      28.26
O      16.95      23.62      27.92
O      23.79      27.75      16.85
O      29.13      17.92      22.16
C      25.84      18.56      23.53
C      18.75      23.43      25.75
C      23.63      25.66      18.68
C      28.16      17.76      22.98
