48

H      10.29       8.59       2.38
O       8.36       1.46      12.52
O      12.58       8.41       1.58
C       2.60      12.73       7.66
C      12.80       7.63       2.57
C       4.92      11.94       7.11
C       7.67       2.51      12.74
C      12.01       7.07       4.89
C       7.13       4.84      11.96
C       3.39      10.41       8.21
O       1.64      12.57       8.48
C       8.22       3.31      10.43
H       6.90      11.19       6.75
C      10.49       8.17       3.36
H      11.26       6.71       6.87
C       3.65      11.68       7.66
H       6.77       6.82      11.22
C      11.75       7.61       3.63
C       7.67       3.57      11.69
H       4.13       8.43       8.57
H       8.59       4.06       8.45
H       8.51       8.55       4.10
C       5.65       9.68       7.66
C       9.75       7.63       5.62
C       5.91      10.96       7.13
C       7.68       5.58       9.70
C      11.03       7.09       5.88
C       7.15       5.83      10.98
H       5.93       7.63       9.41
C       4.37       9.42       8.19
C       8.20       4.29       9.44
H       7.70       9.39       5.91
C       9.50       8.16       4.34
H       9.44       5.87       7.66
C       6.69       8.63       7.66
C       8.70       7.63       6.66
C       7.69       6.63       8.66
C       6.70       7.63       8.64
H       2.41      10.22       8.63
C       7.70       8.62       6.68
H       5.12      12.92       6.69
C       8.67       6.64       7.66
H      12.99       6.65       5.09
H       6.72       5.04      12.94
O       2.76      13.70       6.84
O      13.82       6.87       2.73
O       6.97       2.74      13.79
H       8.63       2.33      10.22
