48

H      10.33      21.88      28.26
C       2.63      17.79      22.96
C      12.85      22.85      28.08
C       4.94      18.58      23.50
C      12.06      23.41      25.77
C       7.77      28.00      17.88
C       7.21      25.68      18.67
C       3.43      20.12      22.41
O       1.61      17.94      22.20
H       6.92      19.32      23.88
O       8.60      28.97      18.04
C       8.32      27.19      20.20
H      11.32      23.78      23.79
C      10.53      22.30      27.28
O      12.69      22.02      29.05
C       3.68      18.85      22.95
C      11.80      22.85      27.03
H       6.84      23.70      19.41
H       4.18      22.09      22.06
C       7.77      26.94      18.93
H       8.68      26.45      22.18
H       8.55      21.95      26.54
C       5.69      20.84      22.97
C       9.80      22.87      25.03
C       5.94      19.56      23.49
C      11.08      23.39      24.78
C       7.76      24.93      20.93
C       7.23      24.69      19.65
C       4.41      21.10      22.44
H       6.00      22.89      21.22
H       7.74      21.12      24.73
C       8.30      26.21      21.19
C       6.74      21.89      22.98
C       9.54      22.33      26.31
H       9.51      24.63      22.98
C       8.75      22.87      23.98
C       7.76      23.88      21.98
C       6.77      22.89      21.99
C       7.74      21.89      23.96
H       5.14      17.60      23.92
H      13.04      23.83      25.57
C       8.74      23.86      22.98
H       6.79      25.48      17.69
O       2.85      16.79      23.74
H       2.44      20.32      21.99
O      13.82      23.67      27.93
O       6.95      27.85      16.91
H       8.75      28.17      20.40
