48

O      29.12      12.43      22.23
H      20.45       8.51      28.29
O      22.28       1.46      18.11
C      28.13      12.66      23.00
C      25.79      11.87      23.55
C      17.92       7.55      28.09
C      23.03       2.47      17.88
C      18.72       7.01      25.77
C      23.57       4.80      18.66
C      27.32      10.35      22.46
H      23.81      11.13      23.91
C      22.47       3.27      20.19
C      27.06      11.61      23.01
C      20.25       8.10      27.30
O      18.08       8.30      29.11
H      19.46       6.65      23.80
H      23.93       6.78      19.41
C      18.98       7.56      27.04
H      26.58       8.37      22.08
C      23.03       3.54      18.92
H      22.10       4.01      22.16
H      22.23       8.45      26.56
C      25.06       9.61      22.99
C      24.81      10.89      23.53
C      20.98       7.55      25.04
C      23.01       5.53      20.93
C      19.69       7.03      24.79
C      23.54       5.79      19.65
H      24.77       7.57      21.23
C      26.34       9.36      22.47
C      22.49       4.25      21.18
H      23.02       9.31      24.75
C      24.01       8.57      22.99
C      21.23       8.08      26.32
H      21.26       5.81      22.98
C      22.02       7.56      23.99
C      23.01       6.57      21.98
C      24.00       7.57      22.00
H      25.60      12.86      23.98
C      23.02       8.54      23.98
C      22.03       6.58      22.98
H      17.73       6.60      25.58
O      27.97      13.68      23.76
H      23.99       5.00      17.68
H      28.31      10.15      22.04
O      16.92       6.77      27.86
H      22.06       2.29      20.38
O      23.77       2.65      16.85
