106

V       6.65       8.63      10.30
V       3.08       8.32      10.37
V       2.50      13.88       0.03
V       6.04       3.06      20.64
H       0.61       3.86       9.73
H       4.81      13.13      10.93
H       0.49       1.88       8.33
H       4.79      15.11      12.33
H       1.45       6.30       6.36
H       4.32      10.61      14.33
H       0.83       6.67       1.88
H       5.09      10.33      18.80
H       0.98       1.04       3.65
H       4.35      15.90      17.02
H       1.53      14.38       6.96
H       0.30      12.49       6.15
H       1.35      13.09       4.81
H       6.70      13.52       4.86
H       3.70       2.56      13.79
H       5.03       4.46      14.48
H       5.83       3.43      15.72
H       4.07       3.88      15.89
H       0.51       6.95      20.28
H       1.88       8.56      19.15
H       2.48       6.29       0.06
H       0.73       9.48      20.18
H       3.94      10.01       0.27
H       5.65       9.06       1.60
H       6.44      10.15       0.39
H       6.41       8.35       0.13
H       0.28       7.53       3.84
H       5.69       9.52      16.81
C       4.65       9.67       8.17
C       1.09       7.27      12.49
C       4.64      10.56      11.73
C       1.08       6.39       8.94
C       0.66       2.84       7.85
C       4.72      14.14      12.81
C       1.00       5.20       8.10
C       4.60      11.75      12.57
C       1.05       4.55       1.59
C       4.66      12.40      19.07
C       0.90       5.70       2.36
C       4.93      11.27      18.30
C       0.75       5.63       3.76
C       5.03      11.36      16.90
C       0.89       4.38       4.43
C       4.74      12.59      16.24
C       0.94       3.20       3.63
C       4.58      13.76      17.03
C       0.93       4.24       5.85
C       4.65      12.72      14.81
C       0.80       2.95       6.45
C       4.65      14.02      14.22
C       0.81       1.79       5.64
C       4.57      15.17      15.03
C       0.91       1.93       4.25
C       4.49      15.02      16.41
C       1.14       5.34       6.72
C       4.52      11.60      13.95
C       0.74       3.96       8.66
C       4.73      13.01      12.00
C       0.99       3.30       2.22
C       4.54      13.65      18.45
C       0.99       4.79      17.23
C       4.57      12.14       3.44
C       1.01       5.36      16.15
C       4.58      11.58       4.52
C       1.02       6.02      14.87
C       4.59      10.92       5.80
C       1.04       6.58      13.79
C       4.61      10.36       6.88
C       4.47      14.86      19.28
C       0.94       2.09       1.39
C       4.53      12.84       2.15
C       0.95       4.11      18.52
C       0.49      13.35       5.47
C       4.87       3.61      15.18
C       1.58       8.76      20.20
C       5.84       9.22       0.51
N       0.80      14.53       6.26
N       4.50       2.43      14.42
N       1.20       4.62       0.16
N       4.55      12.26      20.49
O       3.49       9.99      11.43
O       7.06       6.95       9.24
O       5.82       9.46       8.70
O       2.25       7.48      11.97
O       5.84      10.15      11.38
O       2.28       6.80       9.29
O       7.10       7.64      11.94
O       3.54       9.31       8.73
O       4.71       7.65      10.51
O       1.14       9.30      10.16
O       5.68      13.20       1.61
O       2.09       3.75      19.06
O       3.28      15.27      19.62
O       6.87       1.67       1.05
O       3.33      13.04       1.63
O       6.87       3.90      19.04
O       2.08       1.52       1.09
O       5.61      15.43      19.58
O       4.42       3.73      20.49
O       0.88      13.21       0.18
O       0.35       6.76       4.45
O       5.52      10.28      16.19
