132

Ni       3.45       2.15      15.72
Ni      10.44       8.01      13.73
Ni       9.44       8.69       3.92
Ni       2.45       2.82       5.92
H       3.22      10.55      16.15
H      11.34      10.45      16.69
H       9.41       4.38      16.37
H       1.30       4.29      15.87
H       7.91       2.05      19.63
H       8.65       7.35       1.45
H       7.73       0.89       2.35
H       8.75       8.34      18.68
H       2.21       9.73      13.31
H       0.88       1.70      12.78
H       7.17       2.52      13.09
H       8.69      10.51      13.58
H       9.75       3.58       9.86
H       3.90       3.37       8.40
H      10.41       3.13       7.50
H       3.42       3.86      10.81
H       9.67       0.28       3.49
H       1.55       0.38       2.96
H       3.47       6.45       3.28
H      11.59       6.54       3.78
H       4.97       8.79       0.02
H       4.24       3.49      18.19
H       5.15       9.95      17.30
H       4.13       2.49       0.96
H      10.67       1.11       6.33
H      12.01       9.14       6.86
H       5.72       8.32       6.56
H       4.20       0.33       6.07
H       3.14       7.26       9.79
H       8.98       7.46      11.24
H       2.48       7.71      12.15
H       9.47       6.98       8.83
H       6.78       5.25      14.70
H       3.64       9.04      14.73
H       6.10       5.58       4.94
H       9.24       1.80       4.91
C       0.77       1.07      16.24
C       9.96       1.02      16.53
C       9.24       2.22      16.59
C       9.92       3.42      16.35
C       9.22      10.45      18.97
C       6.60       7.40      14.68
C       5.70       8.48      14.73
C       6.12       9.92      14.85
C      11.28       3.38      16.07
C       7.27       0.57       0.27
C       8.77       8.36       1.08
C       7.45       0.17       1.58
C       9.04       9.12      19.39
C       8.08       7.62      14.50
C      11.96      10.46      13.22
C      10.38       1.39      12.93
C       9.33       2.31      12.87
C       8.03       1.85      13.11
C       1.26       3.78      10.52
C       4.70       5.83      14.76
C       3.81       6.92      14.74
C       2.31       6.78      14.63
C       7.83       0.50      13.37
C      10.80       3.54       9.58
C       2.88       3.44       8.77
C      11.16       3.29       8.26
C       2.60       3.71      10.10
C       4.23       4.41      14.95
C      12.11       9.77       3.41
C       2.93       9.82       3.11
C       3.65       8.62       3.05
C       2.97       7.42       3.30
C       3.67       0.38       0.68
C       6.29       3.44       4.96
C       7.19       2.35       4.92
C       6.76       0.92       4.79
C       1.60       7.45       3.57
C       5.61      10.27      19.38
C       4.12       2.47      18.57
C       5.44      10.67      18.06
C       3.84       1.71       0.26
C       4.81       3.21       5.14
C       0.93       0.37       6.42
C       2.50       9.44       6.71
C       3.55       8.52       6.77
C       4.86       8.98       6.54
C      11.62       7.06       9.12
C       8.18       5.01       4.88
C       9.08       3.92       4.91
C      10.57       4.05       5.02
C       5.06      10.34       6.27
C       2.09       7.29      10.07
C      10.00       7.40      10.87
C       1.72       7.55      11.38
C      10.28       7.13       9.54
C       8.66       6.42       4.70
C       6.09       6.09      14.71
C       4.33       8.21      14.73
C       6.80       4.75       4.93
C       8.55       2.63       4.91
S       7.49       2.30      16.95
S       8.83      10.75      17.27
S       9.56       4.04      12.52
S       1.03       4.22      12.22
S       5.39       8.53       2.69
S       4.06       0.08       2.38
S       3.33       6.79       7.12
S      11.86       6.61       7.43
N       1.44       2.22      16.01
N       9.13       9.29       2.00
N      10.70      10.01      13.44
N       1.91       3.24       7.85
N      11.45       8.61       3.64
N       3.75       1.55      17.65
N       2.18       0.83       6.20
N      10.97       7.60      11.80
O       7.33      10.22      14.95
O       3.27       0.36      14.93
O       8.46       7.84      13.29
O       8.91       7.55      15.45
O       1.77       5.66      14.55
O      12.21       7.92      14.55
O       3.95       4.07      16.16
O       4.16       3.57      14.01
O       5.56       0.62       4.70
O       9.62      10.47       4.72
O       4.42       3.00       6.36
O       3.97       3.29       4.20
O      11.11       5.18       5.10
O       0.67       2.92       5.09
O       8.94       6.76       3.49
O       8.73       7.27       5.64
