22

Y      10.05       3.85       9.16
Y       6.32       3.82       9.33
C       8.46       7.61      10.04
C       8.90       6.19      10.08
C      12.48       1.77       9.65
C       8.30       2.76      11.74
C       7.91       0.06       8.45
C       7.47       1.48       8.40
C      12.61       5.90       8.83
C       8.07       4.91       6.74
O       8.10       5.28       9.64
O      10.08       5.87      10.43
O      11.34       1.99       9.11
O       4.51       2.71      10.09
O       9.42       3.09      11.23
O       7.15       3.16      11.34
O       8.27       2.39       8.85
O       6.29       1.80       8.06
O       5.03       5.68       9.38
O      11.86       4.96       8.39
O       6.95       4.57       7.26
O       9.22       4.51       7.14
