776

Mn      21.73      26.13      18.34
Mn      25.25      25.18      15.19
Mn      17.93      28.48      16.48
Mn      30.67      16.68      24.47
Mn      16.32      17.64      27.62
Mn      26.86      14.34      26.31
Mn      26.21      18.34      16.67
Mn      11.85      15.19      17.61
Mn      22.40      16.49      14.33
Mn      17.27      24.47      26.12
Mn      20.77      27.63      25.18
Mn      31.32      26.32      28.47
Mn      13.96       2.42      10.19
Mn      10.45       3.36      13.34
Mn      17.77       0.06      12.05
Mn       5.02      11.86       4.06
Mn      19.37      10.91       0.92
Mn       8.83      14.21       2.22
Mn       9.48      10.20      11.86
Mn      23.84      13.35      10.92
Mn      13.29      12.06      14.20
Mn      18.43       4.08       2.41
Mn      14.92       0.91       3.35
Mn       4.37       2.22       0.06
H      20.29      22.38      20.04
H      21.16      20.05      19.77
H      23.05      19.60      18.17
H      24.00      21.46      16.87
H      24.71      28.38      15.12
H      14.87       1.03      16.23
H      21.84      26.04      21.50
H      23.39      26.45      23.39
H      26.59      26.76      20.49
H      24.90      26.32      18.72
H      25.57      27.12      24.15
H      26.71      27.80      22.98
H      28.06      25.14      18.56
H      30.23      26.34      18.86
H      31.09      27.83      17.06
H      29.73      28.14      14.98
H      23.26      27.31      11.58
H      24.43      26.44      10.62
H      21.98      25.15      12.02
H      22.12      25.53      10.28
H      23.14      24.27      11.01
H       7.04       2.21      19.67
H      25.46       2.38      22.09
H       9.53       1.09      23.03
H      19.82      28.24      21.51
H      21.19      26.07      14.29
H      20.95      24.84      15.53
H      18.71      24.23      14.50
H      20.04      24.03      13.35
H      18.97      25.45      13.24
H      29.91      24.03      26.76
H      28.36      23.73      24.83
H      27.95      28.03      24.70
H      29.52      28.15      26.63
H      27.62      25.50      22.52
H      26.44      24.80      23.62
H      29.24      20.43      22.76
H      30.10      22.76      23.04
H      31.98      23.21      24.64
H      15.06      21.35      25.93
H      15.79      14.42      27.67
H      14.84      13.24      26.57
H      12.92      16.77      21.30
H      14.47      16.38      19.41
H      17.67      16.05      22.31
H      15.98      16.48      24.07
H      16.65      15.70      18.64
H      17.79      15.02      19.82
H      19.12      17.68      24.24
H      21.29      16.48      23.93
H      22.17      14.99      25.74
H      20.81      14.67      27.81
H      23.30      15.48       2.67
H       6.59      16.36       3.64
H      22.00      17.64       2.25
H      22.14      17.26       3.98
H      23.16      18.52       3.26
H      24.90      12.08      23.12
H      25.44      11.91      20.69
H      27.40      13.18      19.76
H      28.77      14.57      21.28
H      30.13      16.76      28.50
H      29.89      17.98      27.26
H      27.64      18.58      28.28
H      20.05      18.77       0.91
H      18.98      17.35       1.01
H      20.99      18.78      16.04
H      19.44      19.09      17.96
H      19.04      14.78      18.10
H      20.61      14.67      16.17
H      18.70      17.32      20.27
H      17.52      18.02      19.18
H      24.79      20.05      20.43
H      25.65      19.75      22.76
H      27.53      18.15      23.20
H      28.48      16.86      21.33
H      11.32      15.14      14.40
H      10.37      16.24      13.22
H      26.32      21.50      16.75
H      27.87      23.39      16.36
H      13.20      20.50      16.04
H      11.52      18.73      16.46
H      30.05      24.16      15.69
H      13.32      22.99      15.01
H      14.66      18.57      17.66
H      16.83      18.87      16.47
H      17.71      17.07      14.98
H      16.34      14.99      14.66
H       9.88      11.58      15.47
H      11.05      10.63      16.35
H      26.46      12.02      17.64
H       8.73      10.28      17.26
H       9.76      11.01      18.51
H      20.43      19.67      12.07
H      20.97      22.10      11.89
H      22.92      23.04      13.18
H      24.29      21.53      14.57
H      25.67      14.30      16.74
H      25.44      15.54      17.97
H      23.18      14.51      18.57
H      24.51      13.36      18.78
H      23.44      13.25      17.35
H      16.52      26.77      18.78
H      14.97      24.85      19.08
H      14.56      24.71      14.78
H      16.14      26.64      14.66
H      14.23      22.53      17.31
H      13.05      23.63      18.01
H      15.84      22.77      22.37
H      16.70      23.06      20.04
H      18.59      24.65      19.59
H      19.54      25.95      21.46
H      20.23      27.69      28.38
H      10.38      26.57       1.04
H      17.38      21.31      26.04
H      18.93      19.42      26.43
H      22.13      22.32      26.76
H      20.44      24.09      26.33
H      21.11      18.66      27.10
H      22.25      19.83      27.78
H      23.57      24.26      25.13
H      25.74      23.95      26.32
H      26.61      25.75      27.81
H      25.26      27.83      28.13
H       9.88       2.71      27.33
H      11.04       3.66      26.45
H       8.60       2.27      25.16
H      26.60       4.00      25.54
H       9.76       3.27      24.29
H      20.43      23.12       2.20
H      20.98      20.70       2.37
H      22.93      19.76       1.09
H      33.22      21.29      28.23
H      34.58      28.52      26.05
H      16.48      27.28      24.83
H      32.09      28.31      24.22
H      24.52       0.93      24.02
H      23.45       1.03      25.44
H      25.45      16.05      24.02
H      23.90      17.97      23.72
H      23.50      18.10      28.02
H      25.07      16.17      28.13
H      23.16      20.29      25.48
H      21.98      19.19      24.79
H      15.40       6.17       8.49
H      14.53       8.49       8.76
H      12.64       8.94      10.36
H      11.69       7.08      11.66
H      10.98       0.17      13.41
H      20.82      27.51      12.30
H      13.85       2.50       7.03
H      12.30       2.10       5.14
H       9.10       1.78       8.04
H      10.79       2.22       9.81
H      10.12       1.43       4.38
H       8.98       0.75       5.56
H       7.63       3.41       9.97
H       5.47       2.20       9.67
H       4.60       0.71      11.47
H       5.96       0.40      13.55
H      12.43       1.23      16.95
H      11.26       2.11      17.91
H      13.71       3.40      16.51
H      13.58       3.02      18.25
H      12.55       4.27      17.52
H      28.65      26.34       8.86
H      10.23      26.16       6.44
H      26.16      27.45       5.50
H      15.88       0.31       7.02
H      14.50       2.48      14.24
H      14.74       3.70      13.00
H      16.99       4.31      14.03
H      15.65       4.51      15.18
H      16.73       3.09      15.29
H       5.78       4.51       1.77
H       7.33       4.81       3.70
H       7.74       0.51       3.83
H       6.17       0.40       1.90
H       8.07       3.05       6.01
H       9.25       3.74       4.92
H       6.46       8.11       5.77
H       5.60       5.79       5.49
H       3.71       5.34       3.89
H      20.63       7.20       2.60
H      19.90      14.12       0.86
H      20.85      15.30       1.96
H      22.78      11.78       7.23
H      21.22      12.17       9.12
H      18.02      12.49       6.22
H      19.71      12.06       4.46
H      19.04      12.85       9.89
H      17.90      13.52       8.71
H      16.57      10.87       4.29
H      14.40      12.07       4.60
H      13.52      13.55       2.79
H      14.88      13.87       0.72
H      12.40      13.06      25.86
H      29.10      12.19      24.89
H      13.69      10.90      26.28
H      13.55      11.28      24.55
H      12.53      10.02      25.27
H      10.80      16.47       5.41
H      10.25      16.64       7.84
H       8.30      15.37       8.77
H       6.92      13.98       7.25
H       5.56      11.79       0.03
H       5.80      10.57       1.27
H       8.05       9.97       0.25
H      15.64       9.77      27.62
H      16.71      11.20      27.52
H      14.70       9.76      12.49
H      16.25       9.46      10.57
H      16.65      13.76      10.43
H      15.08      13.88      12.36
H      16.99      11.22       8.26
H      18.17      10.53       9.35
H      10.91       8.50       8.10
H      10.04       8.79       5.78
H       8.16      10.39       5.33
H       7.21      11.68       7.20
H      24.37      13.41      14.13
H      25.32      12.30      15.31
H       9.37       7.04      11.78
H       7.82       5.15      12.17
H      22.49       8.05      12.49
H      24.17       9.82      12.07
H       5.64       4.38      12.84
H      22.37       5.56      13.52
H      21.03       9.98      10.87
H      18.86       9.67      12.06
H      17.99      11.48      13.55
H      19.35      13.55      13.87
H      25.81      16.97      13.06
H      24.64      17.92      12.18
H       9.23      16.53      10.89
H      26.96      18.26      11.27
H      25.93      17.53      10.02
H      15.26       8.88      16.46
H      14.72       6.45      16.64
H      12.78       5.50      15.36
H      11.41       7.02      13.96
H      10.03      14.24      11.79
H      10.26      13.01      10.56
H      12.51      14.03       9.96
H      11.18      15.19       9.76
H      12.25      15.29      11.18
H      19.17       1.77       9.76
H      20.72       3.69       9.45
H      21.13       3.83      13.76
H      19.55       1.91      13.87
H      21.46       6.01      11.22
H      22.64       4.92      10.52
H      19.85       5.78       6.16
H      18.99       5.49       8.49
H      17.10       3.89       8.94
H      16.15       2.60       7.07
H      15.46       0.86       0.15
H      25.31       1.97      27.49
H      18.32       7.23       2.49
H      16.76       9.12       2.10
H      13.57       6.22       1.78
H      15.25       4.46       2.21
H      14.58       9.89       1.43
H      13.44       8.71       0.75
H      12.13       4.29       3.40
H       9.95       4.60       2.21
H       9.08       2.80       0.72
H      10.43       0.72       0.40
H      25.82      25.84       1.20
H      24.65      24.88       2.08
H      27.10      26.28       3.37
H       9.09      24.54       2.99
H      25.93      25.28       4.24
H      15.26       5.42      26.33
H      14.71       7.85      26.16
H      12.76       8.79      27.44
H       2.48       7.26       0.30
H       1.11       0.03       2.48
H      19.21       1.27       3.71
H       3.60       0.23       4.31
H      11.17      27.62       4.51
H      12.24      27.51       3.09
H      10.24      12.50       4.51
H      11.79      10.58       4.81
H      12.19      10.44       0.51
H      10.62      12.37       0.40
H      12.53       8.26       3.05
H      13.71       9.35       3.74
C      21.65      23.24      18.63
C      21.10      22.16      19.35
C      21.59      20.87      19.19
C      22.64      20.60      18.29
C      23.19      21.65      17.57
C      22.72      22.98      17.71
C      23.37      24.02      16.92
C      23.41      27.49      16.64
C      15.11       0.02      15.94
C      22.90      26.20      21.32
C      23.78      26.43      22.37
C      25.13      26.65      22.10
C      25.55      26.60      20.76
C      24.61      26.36      19.77
C      26.11      26.90      23.22
C      27.68      25.95      16.61
C      28.45      25.80      17.79
C      29.65      26.48      17.95
C      30.14      27.32      16.94
C      29.39      27.49      15.78
C      28.16      26.82      15.59
C      27.43      27.07      14.35
C      24.57      26.07      12.70
C      23.74      26.33      11.47
C      22.69      25.26      11.18
C       8.66       0.88      19.22
C       7.89       1.67      20.09
C       8.20       1.75      21.45
C       9.29       1.04      21.97
C      10.06       0.27      21.12
C       9.77       0.16      19.75
C      19.50      27.79      18.94
C      19.70      26.54      15.73
C      20.42      25.53      14.87
C      19.48      24.77      13.94
C      29.45      24.89      26.27
C      28.59      24.74      25.19
C      28.01      25.86      24.59
C      28.36      27.12      25.11
C      29.23      27.19      26.20
C      27.05      25.70      23.44
C      30.60      19.56      24.17
C      30.05      20.65      23.45
C      30.53      21.94      23.62
C      31.58      22.21      24.51
C      32.13      21.16      25.23
C      31.66      19.83      25.09
C      14.44      18.79      25.88
C      14.48      15.32      26.17
C      15.09      14.26      26.86
C      13.98      16.61      21.48
C      14.86      16.38      20.43
C      16.21      16.17      20.69
C      16.62      16.21      22.03
C      15.68      16.45      23.03
C      17.19      15.91      19.58
C      18.75      16.87      26.19
C      19.51      17.01      25.01
C      20.72      16.34      24.85
C      21.21      15.50      25.86
C      20.46      15.33      27.01
C      19.23      16.00      27.21
C      18.50      15.75      28.45
C       6.73      16.73       1.57
C      23.77      16.47       2.79
C      22.71      17.54       3.09
C      26.51      13.41      23.57
C      25.74      12.61      22.69
C      26.05      12.53      21.34
C      27.15      13.23      20.81
C      27.92      14.01      21.66
C      27.62      14.13      23.04
C      28.44      15.03      23.85
C      28.64      16.28      27.06
C      29.36      17.29      27.92
C      19.49      18.03       0.32
C      20.53      17.92      16.52
C      19.67      18.08      17.60
C      19.09      16.95      18.20
C      19.45      15.70      17.69
C      20.32      15.63      16.60
C      18.13      17.12      19.35
C      26.14      18.64      19.56
C      25.60      19.35      20.65
C      26.08      19.18      21.94
C      27.13      18.28      22.20
C      27.67      17.56      21.14
C      27.21      17.72      19.82
C      27.85      16.93      18.78
C      10.02      16.65      15.30
C      10.62      15.95      14.24
C      27.38      21.32      16.59
C      28.26      22.38      16.37
C      29.62      22.11      16.16
C      12.16      20.77      16.20
C      29.09      19.78      16.43
C      12.73      23.23      15.91
C      14.29      16.62      16.85
C      15.05      17.80      17.00
C      16.26      17.96      16.33
C      16.75      16.95      15.49
C      16.00      15.79      15.32
C      14.77      15.60      15.98
C      14.03      14.36      15.73
C      11.17      12.71      16.72
C      10.35      11.47      16.46
C       9.30      11.18      17.53
C      22.05      19.22      13.40
C      21.27      20.10      12.60
C      21.58      21.45      12.52
C      22.67      21.98      13.23
C      23.44      21.13      14.01
C      23.16      19.76      14.12
C      23.98      18.95      15.02
C      24.18      15.74      16.27
C      24.90      14.88      17.28
C      23.95      13.94      18.04
C      16.06      26.29      17.91
C      15.20      25.21      18.07
C      14.62      24.61      16.95
C      14.97      25.12      15.69
C      15.85      26.21      15.62
C      13.66      23.45      17.11
C      17.20      24.18      23.24
C      16.65      23.46      22.15
C      17.14      23.63      20.86
C      18.19      24.53      20.60
C      18.73      25.25      21.65
C      18.26      25.10      22.97
C      18.90      25.89      24.02
C      18.94      26.17      27.49
C      10.62      26.86       0.02
C      18.44      21.49      26.20
C      19.32      20.44      26.42
C      20.67      20.70      26.64
C      21.08      22.04      26.60
C      20.14      23.04      26.36
C      21.66      19.59      26.89
C      23.20      26.21      25.94
C      23.96      25.03      25.79
C      25.17      24.86      26.46
C      25.66      25.87      27.30
C      24.91      27.03      27.48
C      23.68      27.22      26.81
C      22.95      28.47      27.07
C      11.18       1.58      26.08
C      10.35       2.82      26.34
C       9.30       3.10      25.27
C      22.05      23.57       0.86
C      21.28      22.70       1.66
C      21.59      21.34       1.75
C      22.68      20.82       1.04
C      23.46      21.67       0.26
C      23.16      23.04       0.14
C      32.89      23.86      27.77
C      33.10      27.08      26.53
C      33.81      27.94      25.52
C      23.96       0.34      24.76
C      24.99      16.53      24.88
C      24.13      17.61      24.72
C      23.55      18.21      25.85
C      23.91      17.69      27.10
C      24.78      16.61      27.18
C      22.59      19.37      25.69
C      14.04       5.30       9.90
C      14.59       6.39       9.18
C      14.10       7.68       9.34
C      13.05       7.94      10.24
C      12.50       6.89      10.96
C      12.97       5.56      10.82
C      12.32       4.53      11.61
C      12.28       1.05      11.89
C      20.58      28.53      12.59
C      12.79       2.34       7.21
C      11.91       2.11       6.16
C      10.56       1.89       6.43
C      10.15       1.94       7.77
C      11.09       2.18       8.76
C       9.58       1.64       5.31
C       8.01       2.60      11.92
C       7.25       2.74      10.74
C       6.04       2.07      10.58
C       5.55       1.23      11.59
C       6.30       1.06      12.75
C       7.53       1.73      12.94
C       8.27       1.48      14.18
C      11.12       2.47      15.83
C      11.95       2.22      17.06
C      13.01       3.29      17.35
C      27.03      27.67       9.32
C      27.80      26.87       8.44
C      27.49      26.79       7.08
C      26.40      27.50       6.56
C      25.63      28.28       7.41
C      25.92      28.39       8.78
C      16.20       0.76       9.59
C      15.99       2.00      12.80
C      15.27       3.01      13.66
C      16.22       3.77      14.60
C       6.24       3.65       2.26
C       7.10       3.81       3.34
C       7.68       2.68       3.94
C       7.33       1.43       3.42
C       6.46       1.35       2.34
C       8.64       2.84       5.09
C       5.10       8.98       4.36
C       5.65       7.89       5.08
C       5.16       6.60       4.91
C       4.11       6.34       4.02
C       3.57       7.39       3.30
C       4.03       8.72       3.44
C      21.25       9.75       2.65
C      21.21      13.23       2.36
C      20.60      14.29       1.67
C      21.71      11.94       7.05
C      20.83      12.16       8.10
C      19.48      12.38       7.84
C      19.07      12.34       6.50
C      20.01      12.10       5.50
C      18.50      12.63       8.95
C      16.94      11.68       2.34
C      16.18      11.53       3.52
C      14.97      12.20       3.68
C      14.48      13.05       2.67
C      15.23      13.22       1.52
C      16.46      12.55       1.33
C      17.20      12.80       0.08
C      28.96      11.81      26.96
C      11.92      12.07      25.74
C      12.98      11.01      25.45
C       9.18      15.14       4.96
C       9.95      15.93       5.84
C       9.64      16.02       7.19
C       8.54      15.31       7.72
C       7.77      14.54       6.87
C       8.07      14.42       5.49
C       7.25      13.51       4.68
C       7.05      12.27       1.47
C       6.34      11.26       0.62
C      16.20      10.51      28.21
C      15.16      10.62      12.01
C      16.02      10.46      10.93
C      16.60      11.59      10.33
C      16.24      12.84      10.85
C      15.37      12.92      11.93
C      17.56      11.43       9.18
C       9.55       9.91       8.97
C      10.10       9.19       7.88
C       9.61       9.37       6.59
C       8.56      10.27       6.33
C       8.02      10.98       7.39
C       8.48      10.83       8.71
C       7.84      11.62       9.75
C      25.68      11.90      13.23
C      25.07      12.59      14.29
C       8.31       7.22      11.94
C       7.43       6.17      12.16
C       6.08       6.43      12.38
C      23.53       7.77      12.33
C       6.60       8.77      12.10
C      22.96       5.32      12.62
C      21.40      11.93      11.68
C      20.64      10.75      11.53
C      19.43      10.59      12.20
C      18.94      11.60      13.04
C      19.69      12.75      13.21
C      20.92      12.95      12.55
C      21.66      14.19      12.80
C      24.52      15.84      11.81
C      25.34      17.07      12.07
C      26.39      17.36      11.00
C      13.64       9.32      15.13
C      14.42       8.45      15.93
C      14.11       7.10      16.01
C      13.02       6.56      15.30
C      12.25       7.41      14.52
C      12.53       8.79      14.41
C      11.71       9.60      13.51
C      11.51      12.81      12.26
C      10.79      13.66      11.25
C      11.74      14.60      10.49
C      19.63       2.26      10.62
C      20.49       3.34      10.46
C      21.07       3.94      11.58
C      20.72       3.42      12.84
C      19.84       2.34      12.91
C      22.03       5.09      11.42
C      18.49       4.36       5.30
C      19.04       5.08       6.38
C      18.56       4.91       7.67
C      17.51       4.02       7.94
C      16.96       3.30       6.88
C      17.43       3.44       5.56
C      16.79       2.65       4.52
C      16.75       2.38       1.04
C      25.07       1.69      28.51
C      17.25       7.05       2.33
C      16.37       8.11       2.11
C      15.02       7.84       1.89
C      14.61       6.50       1.93
C      15.55       5.50       2.17
C      14.04       8.96       1.64
C      12.49       2.34       2.59
C      11.73       3.52       2.74
C      10.52       3.68       2.07
C      10.03       2.67       1.23
C      10.78       1.52       1.05
C      12.01       1.32       1.72
C      12.74       0.08       1.46
C      24.51      26.96       2.45
C      25.34      25.73       2.19
C      26.39      25.44       3.26
C      13.64       4.97      27.67
C      14.41       5.85      26.87
C      14.10       7.20      26.78
C      13.01       7.73      27.49
C      12.24       6.88      28.27
C      12.53       5.50      28.39
C       2.80       4.68       0.76
C       2.59       1.47       2.00
C       1.88       0.61       3.01
C      11.73      28.20       3.77
C      10.70      12.01       3.65
C      11.56      10.93       3.81
C      12.14      10.33       2.68
C      11.79      10.85       1.43
C      10.91      11.93       1.35
C      13.10       9.18       2.84
N      23.02      25.32      17.10
N      23.73      26.21      16.33
N      23.30      26.17      20.03
N      26.26      26.43      14.12
N      25.66      26.78      12.90
N      19.21      27.60      17.64
N      19.98      26.61      17.01
N      29.76      26.10      26.78
N      14.10      17.50      25.70
N      14.80      16.60      26.48
N      14.37      16.63      22.77
N       8.41      16.37       0.14
N       7.81      16.02       1.36
N      28.14      15.23      25.15
N      28.90      16.21      25.78
N      20.85      16.71      16.02
N      27.51      17.11      17.48
N      10.34      16.33      16.58
N      27.78      20.04      16.61
N      12.86      14.13      16.36
N      12.26      12.92      16.01
N      23.68      17.65      15.22
N      24.45      17.03      16.21
N      16.38      26.79      16.70
N      18.56      25.71      25.31
N      19.25      26.49      26.21
N      18.83      22.78      26.17
N      12.87       0.17      26.43
N      12.27       1.38      26.79
N      32.60      25.16      27.58
N      33.37      25.79      26.60
N      25.31      16.03      26.09
N      12.67       3.23      11.43
N      11.97       2.33      12.21
N      12.40       2.37       8.50
N       9.43       2.11      14.41
N      10.03       1.77      15.63
N      16.48       0.94      10.89
N      15.71       1.93      11.52
N       5.93       2.44       1.75
N      21.60      11.05       2.83
N      20.89      11.95       2.05
N      21.32      11.91       5.76
N      27.28      12.18      28.39
N      27.88      12.53      27.17
N       7.55      13.32       3.38
N       6.79      12.33       2.76
N      14.84      11.83      12.51
N       8.18      11.44      11.05
N      25.35      12.21      11.95
N       7.91       8.51      11.92
N      22.83      14.41      12.17
N      23.43      15.63      12.52
N      12.01      10.89      13.31
N      11.24      11.52      12.32
N      19.31       1.75      11.83
N      17.13       2.83       3.22
N      16.44       2.06       2.32
N      16.86       5.77       2.36
N      22.82      28.38       2.10
N      23.42      27.16       1.74
N       3.09       3.38       0.95
N       2.32       2.75       1.93
N      10.38      12.52       2.44
O      21.11      24.44      18.85
O      24.28      23.71      16.05
O      22.54      27.72      17.61
O      26.56      25.23      16.51
O      27.90      27.91      13.49
O      24.18      25.16      13.57
O       8.29       0.85      17.94
O      20.48      27.14      19.49
O      18.81      27.33      15.17
O      30.06      18.37      23.94
O      15.35      19.11      26.75
O      13.60      15.09      25.21
O      17.63      17.59      26.29
O      10.05      14.90       0.77
O       6.34      17.65       0.70
O      26.13      13.44      24.85
O      29.43      15.67      23.30
O      27.75      15.49      27.62
O      25.61      18.86      18.36
O      28.77      16.06      19.09
O      27.00      17.61      15.08
O      13.16      16.52      17.58
O      14.51      13.50      14.90
O      10.79      13.57      17.64
O      21.68      17.94      13.42
O      24.97      19.50      15.66
O      23.30      15.18      15.47
O      16.66      23.96      24.43
O      19.82      26.77      23.70
O      18.08      25.19      27.72
O      22.08      26.31      25.22
O      14.51       0.78      27.91
O      10.79       0.71      25.17
O      21.68      24.85       0.83
O      16.01      23.31      27.13
O      32.21      27.63      27.32
O      14.58       4.10       9.68
O      11.41       4.84      12.48
O      13.15       0.82      10.92
O       9.13       3.32      12.02
O       7.79       0.64      15.04
O      11.51       3.38      14.96
O      27.40      27.69      10.60
O      15.21       1.40       9.04
O      16.88       1.21      13.36
O       5.63      10.18       4.59
O      20.34       9.43       1.78
O      22.09      13.46       3.32
O      18.06      10.95       2.24
O      25.64      13.65      27.76
O      29.35      10.90      27.83
O       9.56      15.11       3.68
O       6.26      12.88       5.23
O       7.94      13.06       0.91
O      10.08       9.68      10.17
O       6.92      12.49       9.44
O       8.69      10.94      13.46
O      22.53      12.03      10.95
O      21.18      15.04      13.64
O      24.90      14.97      10.89
O      14.01      10.60      15.11
O      10.72       9.05      12.87
O      12.39      13.37      13.06
O      19.03       4.59       4.10
O      15.87       1.78       4.83
O      17.62       3.35       0.82
O      13.61       2.24       3.31
O      21.18      27.76       0.62
O      24.90      27.83       3.36
O      14.01       3.69      27.70
O      19.68       5.23       1.40
O       3.48       0.91       1.21
