171

C      -2.67      -2.33       9.13
C       8.14       3.22       5.58
C       8.65      -3.49      10.01
C       1.01       0.32       4.76
C       6.63       3.21       5.57
C       2.56      -1.06       3.26
C      -1.48      -2.37       8.38
C       8.65      -0.12       8.25
C       4.51       4.21       5.00
C       1.37      -0.84       3.93
C       8.22      -1.18       9.04
C      -1.14      -1.28       7.59
C       5.90       4.25       4.97
C      -2.89      14.70       2.11
C      -1.33      16.70       2.55
C      -2.53      16.00       2.70
C       5.90       2.17       6.17
C       4.51       2.21       6.16
C       1.24       2.75       9.87
C       0.87       2.56       8.43
C       2.42       3.42      10.21
C       0.87       2.41      12.22
C       0.44       2.25      10.91
C       2.76       3.57      11.55
C       0.35       3.04      16.45
C       4.91       5.21      14.35
C      -1.16       3.05      16.45
C      -5.22       7.20      13.90
C       0.62      12.55       1.16
C       5.27       6.50      13.75
C       2.01      12.55       1.20
C       4.91       9.80      11.69
C      -5.22       8.42      13.20
C       5.27       8.64      12.52
C      -1.88       3.06      15.25
C      -3.27       3.05      15.29
C       5.14      -0.43      13.91
C       4.77       0.91      14.46
C       6.32      -1.06      14.32
C       4.77      -2.30      12.43
C       4.34      -1.08      12.95
C       6.66      -2.29      13.77
C       0.35      12.71      10.87
C      -2.88      -5.53      13.80
C      -1.16      12.70      10.88
C      -1.33      -6.15      15.75
C      -3.27      11.70      10.29
C      -2.52      -5.67      15.22
C      -1.88      11.66      10.28
C       1.01       3.97       2.66
C       2.56       3.35       0.71
C       1.37       3.83       1.24
C       2.01      -5.24      11.48
C       0.62      -5.28      11.45
C       5.13      12.25       6.58
C       4.76      12.05       8.02
C       6.32      12.91       6.24
C       4.77      11.90       4.22
C       4.34      11.74       5.54
C       6.66      13.06       4.90
C      -2.67       9.06       2.55
C       8.64      10.40       1.99
C      -1.48       8.44       2.14
C       8.65       7.19       4.03
C       8.22       8.41       3.50
C      -1.14       7.21       2.69
C       1.23       7.16       7.33
C       0.86       6.01       6.44
C       2.41       7.12       8.07
C       0.86       9.37       8.21
C       0.43       8.31       7.42
C       2.76       8.21       8.87
Co      -1.14       1.52       6.52
Co       1.72       3.20       5.55
Co       2.76       3.08      14.50
Co       6.64      12.58       1.94
Co      -1.14       4.88       4.58
Co       6.65      -4.61      11.87
Co      -2.18      12.58       0.01
Co      -2.17      -6.29      10.90
Co       2.76      11.00       9.94
H       3.38      -0.34       3.28
H      -0.85      -3.25       8.44
H       8.08       0.80       8.17
H       3.91       4.99       4.54
H       7.29      -1.12       9.60
H      -0.25      -1.29       6.97
H       6.42       5.06       4.48
H      -0.52      16.31       1.95
H       6.43       1.33       6.63
H       3.91       1.42       6.60
H       3.06       3.81       9.42
H       0.30       2.02      13.06
H      -0.49       1.74      10.68
H       3.65       4.11      11.86
H      -0.37       2.60       4.50
H      -4.40       6.82      14.51
H       0.01      12.55       2.06
H       2.53      12.57       2.15
H      -4.40       9.14      13.17
H      -1.35       3.08      14.30
H      -3.88       3.06      14.38
H      -4.72      -0.58      15.05
H       4.20      -2.83      11.67
H       3.42      -0.62      12.62
H      -4.13      -2.83      14.08
H       3.53       4.30      16.45
H      -0.51      -6.48      15.11
H      -3.88      10.91       9.85
H      -1.36      10.82       9.82
H       3.37       3.02       1.34
H       2.53      -4.43      11.98
H       0.02      -4.50      11.91
H       7.43      -6.90      11.96
H      -4.73      13.31       7.03
H       4.19      11.51       3.39
H       3.41      11.23       5.77
H      -4.13      13.60       4.59
H      -0.85       8.92       1.40
H       8.08       6.66       4.79
H       7.29       8.86       3.83
H      -0.24       6.67       2.37
H       3.05       6.24       8.02
H       0.29      10.30       8.29
H      -0.49       8.37       6.85
H       3.65       8.21       9.49
N       3.82       3.21       5.59
N      -1.89      -0.16       7.52
N       2.01       3.06      12.55
N      -3.96       3.04      16.45
N       5.91      -2.91      12.83
N      -3.96      12.70      10.86
N       5.91      12.55       3.90
N      -1.89       6.59       3.63
N       2.00       9.33       8.94
O      -0.31       3.08       5.34
O      -2.11      -4.30      10.29
O       7.43      -3.52      10.42
O      -0.19       0.33       5.24
O       8.70       2.23       6.16
O       1.90       1.20       4.95
O       7.58      14.30       2.32
O      -1.99      14.09       1.46
O       8.69       4.21       5.01
O       1.79       2.74       7.58
O      -0.34       2.20       8.20
O       3.59       3.33      16.45
O       1.78       5.19       6.17
O       3.56       1.29      14.26
O       3.71       4.80      14.11
O       0.91       3.04      15.30
O       1.90       3.71       3.51
O      -5.89       4.60      15.02
O       3.70       9.81      11.23
O      -5.88      10.68      11.49
O       4.80      12.54       1.14
O       5.68       1.55      15.05
O       7.48      -6.42      11.12
O      -2.12      11.05       1.42
O       7.59      -5.14      13.55
O       4.80      -5.29      11.45
O      -1.99      -5.80      12.94
O      -0.20       4.35       2.90
O       0.91      11.72      10.29
O       5.68      12.24       8.87
O       3.56      11.69       8.26
O       7.43      10.77       2.16
O      -0.36       5.98       6.04
S       0.24      -2.13       3.70
S       4.15       7.35      12.76
S       0.24       4.27       0.00
