20

Cu       3.27       5.40       5.44
Cu       5.96       5.40       5.44
C       4.61       7.95       5.44
C       4.57       5.42       8.02
C       4.62       2.85       5.44
C      -0.87       4.27       5.76
C      -0.88       6.54       5.21
C       0.54       6.54       5.21
C       0.53       4.27       5.76
C       4.66       5.39       2.85
N      -1.58       5.39       5.43
N       1.25       5.39       5.43
O       3.47       7.34       5.44
O       5.74       7.34       5.44
O       3.42       5.41       7.40
O       5.70       5.41       7.40
O       3.49       3.46       5.44
O       5.76       3.46       5.44
O       3.53       5.39       3.48
O       5.80       5.39       3.48
