18

O      -1.48       2.37      14.58
O      -0.41       2.90      16.43
C       0.81       2.85      13.04
C       0.87       2.75      14.42
O       2.97       3.24      10.16
C       3.27       2.86      14.33
C      -0.42       2.66      15.19
C       2.09       2.77      15.07
C       4.59       2.88      15.05
C       1.89       3.07      10.79
C       3.22       2.96      12.95
H      -0.01       2.84      12.60
H       2.12       2.72      16.00
H       4.00       3.02      12.46
C       1.98       2.97      12.30
O       5.64       2.57      14.41
O       4.63       3.21      16.25
O       0.76       2.99      10.26
