18

O      -2.47       3.02      11.50
O      -2.40       4.21       9.65
O      -5.07       9.65      11.68
O      -4.08       8.98       9.83
O      -3.41       7.46      15.92
O      -2.77       5.33      15.82
C      -2.92       5.32      13.05
C      -3.04       5.33      11.66
H      -2.61       4.56      13.48
H      -3.55       6.48      10.09
H      -4.01       8.33      13.63
C      -3.87       7.59      11.75
C      -2.62       4.11      10.89
C      -3.49       6.47      11.01
C      -4.37       8.81      11.04
C      -3.14       6.40      15.29
C      -3.76       7.58      13.13
C      -3.27       6.45      13.79
