18

C      -0.14       2.38       5.09
H       1.85       2.52       4.79
H      -0.28       2.63       1.39
H      -2.16       2.33       4.93
C       1.03       2.51       4.35
C       0.98       2.61       2.97
C      -1.43       2.49       3.06
C       2.26       2.70       2.20
C      -0.25       2.59       2.32
C      -2.75       2.47       2.34
O      -3.80       2.79       2.98
C      -0.05       2.28       6.60
O      -1.13       2.12       7.23
O       1.08       2.36       7.13
O       3.32       2.99       2.81
O       2.25       2.45       0.96
C      -1.37       2.39       4.44
O      -2.79       2.14       1.14
