490

Gd       9.15      15.87       3.08
Gd       9.14      15.86      15.18
Gd       9.14      15.87       8.70
Gd       9.14      15.86      20.80
Zn      16.31       3.34       3.41
Zn      -3.04       5.28      22.03
Zn       7.21      12.52       3.41
Zn       6.08      10.54      22.03
Zn      -5.24      15.87       3.41
Zn       6.09      -0.01      22.03
Zn      -7.17      12.51      15.52
Zn      12.18      10.54       9.92
Zn       1.92       3.34      15.52
Zn       3.05       5.30       9.93
Zn      14.38      -0.01      15.52
Zn       3.05      15.86       9.92
Zn      -5.24      15.87       8.70
Zn       6.09       0.00      14.28
Zn       7.21      12.52       8.69
Zn       6.08      10.55      14.28
Zn      -1.92       3.35       8.65
Zn      15.19       5.29      14.28
Zn       5.29      15.86      20.80
Zn       3.05      15.86       2.18
Zn       1.92       3.34      20.76
Zn       3.06       5.31       2.17
Zn      -7.17      12.50      20.79
Zn      -6.06      10.58       2.18
Zn      -4.54       7.93       0.02
Zn       4.55       7.89      24.18
Zn       0.01      15.85       0.02
Zn      13.69       7.92      12.08
Zn       4.55       7.91      12.13
Zn       9.12      -0.00      12.12
Zn      -0.01      10.56      21.35
Zn       9.13       5.27       9.25
Zn       9.11       5.27      14.96
Zn       0.03      10.59       2.86
Zn       9.15       5.31       2.86
Zn      -0.01      10.55      14.96
Zn       0.03      10.59       9.25
Zn       9.11       5.26      21.35
H      -2.83      10.41      22.66
H      -0.12       7.57      19.83
H      -0.52       6.18      20.65
H       1.53       8.16      22.58
H       2.55      12.09      19.94
H       4.06      12.32      20.66
H       1.30      13.08      22.64
H      -2.57      12.02      19.94
H      -3.53      13.23      20.63
H      11.96       5.43      10.54
H       9.23       8.27       7.73
H       9.64       9.67       8.55
H       7.60       7.68      10.50
H       6.55       3.80       7.81
H       5.07       3.53       8.56
H       7.83       2.75      10.52
H      11.70       3.83       7.85
H      12.66       2.62       8.53
H      10.41       2.75      13.69
H       6.54       3.82      16.37
H       5.58       2.63      15.67
H       6.29       5.43      13.68
H       9.01       8.28      16.48
H       8.62       9.67      15.64
H      10.64       7.68      13.71
H      11.67       3.77      16.37
H      13.17       3.53      15.64
H      -1.27      13.11       1.58
H       2.61      12.03       4.26
H       3.57      13.23       3.56
H       2.85      10.43       1.55
H       0.15       7.58       4.38
H       0.53       6.19       3.53
H      -1.50       8.17       1.63
H      -2.51      12.10       4.27
H      -4.02      12.34       3.54
H      11.98       5.45       1.58
H       9.26       8.31       4.38
H       9.64       9.69       3.53
H       7.60       7.70       1.61
H       6.54       3.84       4.31
H       5.09       3.54       3.53
H       7.82       2.77       1.59
H      11.71       3.85       4.25
H      12.66       2.63       3.56
H      -2.83      10.41      13.66
H      -0.14       7.56      16.49
H      -0.51       6.18      15.63
H       1.53       8.15      13.74
H       2.59      12.04      16.41
H       4.05      12.32      15.64
H       1.32      13.09      13.70
H      -2.58      12.01      16.35
H      -3.52      13.23      15.66
H      -1.27      13.10      10.54
H       2.61      12.02       7.85
H       3.56      13.23       8.53
H       2.85      10.42      10.55
H       0.14       7.58       7.72
H       0.53       6.19       8.56
H      -1.51       8.16      10.47
H      -2.53      12.07       7.82
H      -4.02      12.33       8.55
H      10.41       2.74      22.63
H       6.54       3.82      19.95
H       5.59       2.61      20.63
H       6.29       5.42      22.64
H       9.02       8.26      19.83
H       8.61       9.66      20.66
H      10.65       7.67      22.60
H      11.70       3.80      19.90
H      13.17       3.52      20.66
H      -1.90       3.36       0.24
H      -3.94       7.22       3.07
H      -3.07       6.05       3.95
H       7.23      12.50       0.24
H       5.17       8.64       3.06
H       6.05       9.80       3.94
H       3.85       0.06       0.26
H       8.21       0.14       3.08
H       6.76       0.21       3.95
H      11.04      12.50      12.35
H      13.09       8.63      15.16
H      12.22       9.79      16.04
H       1.91       3.35      12.35
H       3.97       7.21      15.18
H       3.08       6.04      16.05
H       5.29      15.80      12.36
H       0.93      15.71      15.18
H       2.38      15.62      16.06
H      -5.24      15.87      11.85
H      -0.82      15.83       8.99
H      -2.32      15.83       8.08
H       7.22      12.49      11.86
H       5.17       8.64       9.04
H       6.05       9.80       8.16
H      -1.91       3.35      11.86
H      -3.95       7.21       9.02
H      -3.06       6.05       8.15
H      14.36       0.02      23.95
H      10.01       0.11      21.12
H      11.44       0.17      20.25
H       1.91       3.35      23.96
H       3.96       7.20      21.13
H       3.07       6.04      20.25
H      11.05      12.49      23.96
H      13.09       8.63      21.14
H      12.21       9.79      20.26
C       0.96       3.20       2.63
C      -1.31       7.85      21.43
C      -2.45       9.43      22.39
C       5.93      15.10       2.58
C       3.00      10.78      21.42
C       2.19       8.97      22.32
C      -6.82      13.45       2.60
C      -1.69      13.06      21.44
C       0.26      13.25      22.37
C       8.18      12.66      14.74
C      10.43       7.99       9.32
C      11.58       6.41      10.27
C       3.21       0.76      14.68
C       6.13       5.06       9.33
C       6.93       6.86      10.24
C      15.96       2.42      14.70
C      10.82       2.78       9.34
C       8.86       2.58      10.26
C       2.27       2.40       9.49
C       7.42       2.79      14.87
C       9.37       2.58      13.95
C      10.08      12.68       9.46
C       7.82       7.99      14.88
C       6.67       6.41      13.94
C      15.05       0.76       9.53
C      12.11       5.06      14.87
C      11.31       6.87      13.97
C       6.87      13.45      21.61
C       1.73      13.07       2.76
C      -0.23      13.28       1.85
C      -0.94       3.17      21.55
C       1.32       7.87       2.77
C       2.47       9.45       1.82
C      -5.91      15.09      21.63
C      -2.97      10.80       2.78
C      -2.17       8.99       1.88
C       8.19      12.67      21.57
C      10.44       8.01       2.78
C      11.59       6.43       1.84
C       3.18       0.75      21.64
C       6.15       5.07       2.77
C       6.94       6.88       1.86
C      15.97       2.39      21.60
C      10.82       2.80       2.77
C       8.85       2.60       1.86
C       0.94       3.18       9.44
C      -1.31       7.85      14.87
C      -2.45       9.43      13.92
C       5.95      15.11       9.53
C       2.99      10.79      14.88
C       2.20       8.97      13.99
C      -6.82      13.46       9.50
C      -1.68      13.06      14.87
C       0.28      13.26      13.97
C       6.85      13.44      14.71
C       1.72      13.07       9.34
C      -0.23      13.27      10.27
C      -0.94       3.19      14.74
C       1.32       7.87       9.33
C       2.47       9.44      10.28
C      -5.88      15.10      14.68
C      -2.97      10.80       9.32
C      -2.17       8.98      10.22
C       2.29       2.43       2.61
C       7.42       2.78      21.44
C       9.38       2.57      22.36
C      10.08      12.67       2.63
C       7.82       7.98      21.43
C       6.67       6.40      22.37
C      15.02       0.77       2.58
C      12.11       5.05      21.43
C      11.31       6.85      22.34
C      -1.60       4.31       6.04
C       6.30      12.49       6.05
C      -4.69      15.09       6.06
C      10.74      11.55      18.15
C       2.85       3.37      18.15
C      13.84       0.78      18.16
C       4.43       0.77       6.05
C       7.54      11.55       6.05
C      15.38       3.38       6.04
C       4.71      15.10      18.16
C       1.60       4.31      18.15
C      -6.25      12.49      18.15
C      -2.42       4.23       0.63
C      14.97       5.66       1.99
C       6.71      11.64       0.63
C       5.85      10.20       1.98
C       4.86       0.01       0.64
C      -2.56      15.80       1.99
C      11.56      11.63      12.73
C      -5.82      10.19      14.08
C       2.43       4.22      12.74
C       3.28       5.65      14.09
C       4.28      15.86      12.74
C      11.70       0.06      14.09
C      -4.22      15.86      11.47
C       6.54      -0.01      10.12
C       6.70      11.63      11.47
C       5.85      10.20      10.11
C      -2.42       4.22      11.46
C      14.96       5.65      10.10
C      13.35       0.00      23.56
C       2.59      15.79      22.21
C       2.43       4.21      23.56
C       3.28       5.63      22.20
C      -6.67      11.62      23.57
C      -5.82      10.19      22.22
N      -2.97       8.28      22.78
N      -1.38       9.22      21.54
N      -2.26       7.27      22.16
N      -0.33       7.18      20.74
N       3.45       9.06      22.70
N       1.84      10.03      21.52
N       3.98      10.20      22.12
N       3.09      11.98      20.79
N      -0.45      14.29      22.75
N      -0.47      12.42      21.55
N      -1.69      14.19      22.15
N      -2.78      12.55      20.78
N      12.11       7.55      10.65
N      10.50       6.62       9.43
N      11.39       8.56      10.04
N       9.45       8.66       8.64
N       5.67       6.77      10.62
N       7.28       5.81       9.42
N       5.15       5.63      10.03
N       6.03       3.86       8.68
N       9.58       1.54      10.63
N       9.60       3.42       9.44
N      10.82       1.65      10.04
N      11.90       3.30       8.68
N       8.66       1.55      13.56
N       8.65       3.41      14.77
N       7.41       1.67      14.15
N       6.33       3.31      15.52
N       6.14       7.55      13.54
N       7.74       6.62      14.78
N       6.86       8.57      14.15
N       8.80       8.66      15.56
N      12.57       6.77      13.59
N      10.95       5.81      14.78
N      13.09       5.63      14.17
N      12.21       3.86      15.52
N       0.49      14.31       1.46
N       0.50      12.45       2.67
N       1.73      14.20       2.05
N       2.81      12.56       3.42
N       2.99       8.31       1.42
N       1.40       9.25       2.66
N       2.27       7.29       2.03
N       0.34       7.20       3.46
N      -3.43       9.08       1.50
N      -1.81      10.05       2.69
N      -3.95      10.23       2.08
N      -3.06      12.00       3.41
N      12.11       7.57       1.44
N      10.52       6.64       2.68
N      11.39       8.59       2.04
N       9.46       8.68       3.46
N       5.68       6.78       1.48
N       7.30       5.83       2.68
N       5.17       5.64       2.06
N       6.05       3.87       3.42
N       9.55       1.55       1.49
N       9.59       3.44       2.67
N      10.80       1.66       2.07
N      11.91       3.31       3.41
N      -2.97       8.29      13.52
N      -1.39       9.23      14.77
N      -2.26       7.28      14.13
N      -0.33       7.18      15.56
N       3.45       9.07      13.60
N       1.84      10.03      14.79
N       3.97      10.22      14.17
N       3.08      11.99      15.52
N      -0.42      14.32      13.60
N      -0.46      12.42      14.77
N      -1.67      14.20      14.18
N      -2.77      12.55      15.51
N       0.48      14.31      10.65
N       0.50      12.44       9.45
N       1.72      14.20      10.04
N       2.81      12.56       8.68
N       2.99       8.30      10.68
N       1.40       9.24       9.44
N       2.27       7.29      10.06
N       0.34       7.20       8.64
N      -3.43       9.07      10.59
N      -1.81      10.04       9.42
N      -3.95      10.22      10.02
N      -3.06      12.00       8.68
N       8.67       1.52      22.73
N       8.65       3.40      21.54
N       7.42       1.64      22.14
N       6.34       3.29      20.79
N       6.14       7.54      22.76
N       7.74       6.61      21.53
N       6.86       8.56      22.15
N       8.80       8.65      20.75
N      12.57       6.76      22.72
N      10.95       5.80      21.53
N      13.09       5.62      22.13
N      12.20       3.85      20.78
N      15.66       4.49       1.96
N      15.26       5.14      24.09
N      14.70       6.10       0.75
N      14.54       6.24       3.16
N       6.55      11.38       1.96
N       6.14      10.69      24.09
N       5.59       9.76       0.74
N       5.42       9.62       3.15
N      -3.92      15.84       1.97
N       5.94      -0.01      24.10
N      -2.05      15.83       0.75
N      -1.84      15.69       3.16
N      -6.52      11.37      14.06
N      -6.12      10.70      11.98
N      -5.56       9.75      12.84
N      -5.39       9.61      15.26
N       2.58       4.48      14.06
N       2.99       5.15      11.99
N       3.55       6.09      12.85
N       3.71       6.23      15.27
N      13.07       0.03      14.07
N       3.20      15.86      11.99
N      11.19       0.03      12.85
N      10.98       0.15      15.26
N      -3.92      15.87      10.14
N      -3.14      15.86      12.22
N      -2.04      15.86      11.37
N       7.26       0.04       8.96
N       6.55      11.37      10.14
N       6.14      10.70      12.22
N       5.58       9.75      11.36
N       5.42       9.62       8.94
N      15.66       4.47      10.13
N      15.26       5.15      12.20
N      14.70       6.09      11.34
N      14.54       6.23       8.93
N       3.96      15.84      22.24
N      12.28       0.02       0.11
N       2.08      15.83      23.46
N       1.87      15.65      21.05
N       2.58       4.46      22.24
N       3.00       5.16       0.10
N       3.55       6.08      23.45
N       3.70       6.22      21.03
N      -6.52      11.36      22.24
N      -6.11      10.71       0.11
N      -5.56       9.75      23.46
N      -5.40       9.61      21.04
Cl      -2.94       5.13      19.79
Cl       6.19      10.71      19.79
Cl       5.91      -0.01      19.79
Cl      12.08      10.72       7.69
Cl       2.95       5.14       7.69
Cl       3.22      15.86       7.69
Cl      -3.14      15.86      16.53
Cl       6.15      10.68      16.53
Cl      -2.96       5.18      16.53
Cl      12.28       0.00       4.43
Cl       2.99       5.19       4.42
Cl      12.10      10.69       4.43
Cl      -9.07      15.87       6.04
Cl       9.12      15.86      18.15
Cl       0.02       0.00       0.41
Cl      18.22      -0.01      12.51
O      -0.03       2.51       3.13
O      -1.15       4.66       4.91
O       0.88       4.35       2.17
O       7.03      14.59       3.02
O       5.81      12.79       4.92
O       4.95      14.47       2.16
O      -6.93      14.67       3.03
O      -4.70      14.52       4.92
O      -5.79      12.92       2.16
O       9.17      13.35      15.24
O      10.30      11.19      17.02
O       8.26      11.51      14.27
O       2.10       1.27      15.12
O       3.33       3.07      17.02
O       4.19       1.40      14.26
O      16.07       1.20      15.13
O      13.84       1.35      17.03
O      14.93       2.95      14.26
O       2.15       1.18       9.06
O       4.44       1.34       7.18
O       3.30       2.91       9.95
O       9.12      13.36       8.92
O       7.97      11.18       7.19
O       9.99      11.54       9.94
O      16.17       1.27       9.09
O      14.91       3.04       7.18
O      14.08       1.41       9.95
O       6.98      14.67      21.17
O       4.68      14.52      19.29
O       5.83      12.94      22.05
O       0.02       2.49      20.98
O       1.17       4.69      19.29
O      -0.83       4.31      22.04
O      -7.02      14.59      21.19
O      -5.78      12.82      19.28
O      -4.94      14.45      22.05
O       9.17      13.35      21.04
O      10.31      11.17      19.29
O       8.28      11.52      22.04
O       2.06       1.25      21.19
O       3.32       3.04      19.28
O       4.15       1.40      22.05
O      16.08       1.17      21.17
O      13.80       1.34      19.30
O      14.93       2.90      22.05
O      -0.02       2.50       8.88
O      -1.18       4.70       7.18
O       0.84       4.31       9.93
O       7.07      14.60       9.08
O       5.83      12.82       7.18
O       4.99      14.46       9.95
O      -6.95      14.68       9.06
O      -4.63      14.52       7.19
O      -5.78      12.95       9.95
O       6.95      14.66      15.14
O       4.64      14.53      17.02
O       5.82      12.91      14.26
O       0.03       2.50      15.26
O       1.16       4.67      17.01
O      -0.86       4.34      14.27
O      -6.99      14.59      15.13
O      -5.76      12.78      17.02
O      -4.91      14.46      14.26
O       2.18       1.21       3.03
O       4.50       1.33       4.92
O       3.32       2.95       2.16
O       9.11      13.36       3.15
O       7.98      11.19       4.91
O      10.00      11.52       2.17
O      16.13       1.27       3.03
O      14.89       3.08       4.91
O      14.05       1.41       2.16
