896

H       5.12      16.95      48.88
H       7.72      14.31      48.12
H       4.64      17.37      44.11
H       8.22      13.93      52.90
H       8.68      16.78      46.66
H       7.63      17.91      50.27
H      14.51      21.20      21.09
H      11.91      23.84      20.33
H      14.99      20.78      16.32
H      11.41      24.22      25.10
H      10.95      21.37      18.87
H      11.99      20.24      22.47
H      31.65      34.12       7.19
H      34.34      36.72       6.43
H      31.23      33.65       2.42
H      34.72      37.22      11.21
H      31.91      37.67       4.97
H      30.74      36.62       8.58
H      27.51       4.03      34.98
H      24.82       1.44      34.22
H      27.93       4.50      30.21
H      24.44       0.93      39.00
H      27.25       0.48      32.76
H      28.42       1.53      36.37
H      14.57      16.98      34.22
H      11.94      14.38      34.98
H      14.95      17.48      39.00
H      11.52      13.89      30.21
H      10.97      16.89      36.36
H      12.10      17.93      32.76
H       5.05      21.17       6.44
H       7.68      23.77       7.20
H       4.67      20.67      11.21
H       8.10      24.25       2.42
H       8.65      21.26       8.58
H       7.52      20.22       4.98
H      27.54      34.06      20.34
H      24.89      36.69      21.10
H      28.03      33.69      25.11
H      24.41      37.11      16.32
H      27.37      37.66      22.48
H      28.45      36.52      18.87
H      31.62       4.09      48.12
H      34.27       1.46      48.88
H      31.13       4.46      52.90
H      34.76       1.04      44.11
H      31.80       0.49      50.27
H      30.72       1.63      46.66
H      34.30      21.14       6.50
H      31.71      23.84       7.26
H      34.77      20.72      11.27
H      31.20      24.21       2.48
H      30.75      21.41       8.72
H      31.81      20.23       5.11
H      24.86      17.01      34.29
H      27.45      14.31      35.05
H      24.39      17.43      39.06
H      27.96      13.94      30.27
H      28.41      16.75      36.51
H      27.36      17.92      32.90
H       7.71       4.02      48.18
H       5.03       1.38      48.93
H       8.14       4.49      52.95
H       4.65       0.88      44.16
H       7.45       0.47      50.40
H       8.62       1.56      46.79
H      11.91      34.13      20.38
H      14.60      36.77      21.14
H      11.49      33.66      25.16
H      14.98      37.26      16.37
H      12.18      37.68      22.60
H      11.00      36.59      18.99
H      24.80      21.12      21.15
H      27.43      23.77      20.39
H      24.43      20.62      16.37
H      27.85      24.25      25.16
H      28.40      21.29      19.00
H      27.25      20.22      22.61
H      34.37      17.03      48.93
H      31.74      14.38      48.17
H      34.74      17.53      44.16
H      31.31      13.90      52.95
H      30.77      16.85      46.79
H      31.91      17.94      50.39
H      11.89       4.08      35.04
H      14.53       1.40      34.29
H      11.39       4.46      30.27
H      15.00       0.98      39.06
H      12.07       0.48      32.90
H      10.98       1.66      36.51
H       7.74      34.07       7.26
H       5.09      36.75       6.50
H       8.24      33.69       2.48
H       4.62      37.17      11.27
H       7.56      37.66       5.11
H       8.64      36.49       8.72
H      11.55      15.59      38.80
H      10.53      19.83      40.89
H      11.93      19.80      38.93
H       7.80      19.68      44.16
H       7.93      15.46      44.21
H       9.32      15.51      42.27
H       8.07      22.55      11.01
H       9.10      18.32      13.10
H       7.70      18.35      11.14
H      11.82      18.46      16.37
H      11.69      22.69      16.42
H      10.31      22.64      14.48
H      33.07       1.07      52.70
H      28.84       0.02      54.78
H      28.86       1.42      52.83
H      28.98      36.81       2.46
H      33.20      36.96       2.52
H      33.16      38.36       0.59
H      26.10      37.08      24.92
H      30.33      38.13      27.00
H      30.31      36.73      25.05
H      30.19       1.33      30.25
H      25.96       1.19      30.31
H      26.01      39.33      28.38
H      27.82      22.56      16.57
H      28.87      18.33      14.48
H      27.47      18.36      16.44
H      31.61      18.47      11.23
H      31.47      22.70      11.17
H      30.07      22.65      13.10
H      31.35      15.59      44.35
H      30.29      19.82      42.27
H      31.70      19.79      44.22
H      27.55      19.68      39.02
H      27.69      15.46      38.96
H      29.09      15.50      40.89
H       6.29      37.09       2.67
H      10.52      38.14       0.59
H      10.50      36.73       2.55
H      10.38       1.33      52.91
H       6.16       1.18      52.84
H       6.20      39.33      54.78
H      13.33       1.06      30.46
H       9.10       0.01      28.38
H       9.13       1.42      30.33
H       9.24      36.82      25.12
H      13.47      36.97      25.05
H      13.42      38.36      26.99
H      31.33      35.33      11.02
H      30.30       0.03      13.10
H      31.70      39.54      11.14
H      27.57      39.42      16.37
H      27.70      35.20      16.42
H      29.09      35.24      14.48
H      27.83       2.82      38.81
H      28.87      38.12      40.89
H      27.47      38.15      38.93
H      31.59      38.26      44.16
H      31.46       2.95      44.21
H      30.08       2.90      42.27
H      13.29      20.83      24.91
H       9.06      19.79      26.99
H       9.08      21.19      25.04
H       9.20      17.06      30.26
H      13.42      17.19      30.30
H      13.38      18.58      28.37
H       6.34      17.32      52.70
H      10.57      18.36      54.79
H      10.54      16.95      52.83
H      10.42      21.09       2.48
H       6.20      20.96       2.52
H       6.25      19.57       0.58
H       8.05       2.83      44.35
H       9.10      38.13      42.28
H       7.69      38.16      44.23
H      11.84      38.27      39.02
H      11.70       2.95      38.96
H      10.30       2.91      40.89
H      11.58      35.32      16.56
H      10.52       0.02      14.49
H      11.93      39.53      16.44
H       7.79      39.42      11.23
H       7.92      35.20      11.17
H       9.32      35.24      13.10
H      26.07      17.33      30.47
H      30.30      18.36      28.39
H      30.28      16.97      30.34
H      30.16      21.09      25.11
H      25.94      20.95      25.07
H      25.98      19.57      27.00
H      33.10      20.82       2.67
H      28.86      19.79       0.59
H      28.89      21.19       2.55
H      29.01      17.06      52.90
H      33.23      17.20      52.85
H      33.18      18.58      54.79
H       6.49       5.97      49.49
H      10.58       8.19      50.76
H      10.50       5.79      50.79
H      10.50      12.47      50.68
H       6.44      12.47      49.52
H       6.47      10.09      49.50
H      13.14      32.18      21.70
H       9.05      29.96      22.97
H       9.12      32.36      23.00
H       9.13      25.68      22.89
H      13.19      25.69      21.73
H      13.16      28.06      21.71
H       3.15      35.52       7.80
H       0.91       0.06       9.08
H       3.31      39.53       9.11
H      36.17      39.50       8.99
H      36.19      35.44       7.83
H      38.57      35.48       7.81
H      16.47       2.63      35.59
H      18.71      38.09      36.87
H      16.31      38.16      36.90
H      22.99      38.19      36.78
H      22.97       2.71      35.63
H      20.59       2.67      35.61
H      13.11       5.99      33.68
H       9.03       8.24      32.44
H       9.08       5.84      32.45
H       9.19      12.51      32.40
H      13.22      12.48      33.66
H      13.16      10.10      33.71
H       6.51      32.16       5.89
H      10.60      29.91       4.66
H      10.55      32.31       4.66
H      10.43      25.63       4.61
H       6.40      25.67       5.87
H       6.47      28.05       5.92
H      16.50      35.54      19.78
H      18.77       0.08      18.55
H      16.36       0.03      18.55
H      23.04      39.45      18.51
H      22.99      35.42      19.77
H      20.61      35.48      19.82
H       3.13       2.61      47.57
H       0.86      38.07      46.34
H       3.26      38.11      46.34
H      36.13      38.25      46.30
H      36.18       2.74      47.56
H      38.55       2.67      47.61
H      32.89      32.18       5.88
H      28.81      29.94       4.61
H      28.87      32.34       4.58
H      28.92      25.66       4.70
H      32.98      25.69       5.86
H      32.93      28.07       5.87
H      26.27       5.97      33.67
H      30.35       8.21      32.40
H      30.29       5.81      32.37
H      30.24      12.49      32.49
H      26.18      12.46      33.65
H      26.23      10.08      33.66
H      26.30      32.17      21.70
H      30.37      29.89      22.93
H      30.34      32.29      22.93
H      30.19      25.62      22.97
H      26.16      25.68      21.71
H      26.24      28.05      21.66
H      32.86       5.98      49.49
H      28.79       8.26      50.72
H      28.82       5.86      50.72
H      28.98      12.54      50.76
H      33.01      12.47      49.50
H      32.93      10.10      49.45
H      22.92      15.78      35.60
H      20.68      19.86      36.87
H      23.08      19.79      36.90
H      16.40      19.76      36.78
H      16.42      15.70      35.62
H      18.80      15.74      35.60
H      36.25      22.37       7.80
H      38.48      18.29       9.09
H      36.08      18.36       9.11
H       3.22      18.39       8.99
H       3.20      22.45       7.84
H       0.82      22.41       7.82
H      36.27      15.80      47.57
H      38.54      19.88      46.34
H      36.13      19.84      46.34
H       3.27      19.71      46.30
H       3.22      15.68      47.56
H       0.84      15.74      47.61
H      22.90      22.35      19.78
H      20.63      18.27      18.55
H      23.03      18.31      18.55
H      16.36      18.44      18.51
H      16.41      22.47      19.77
H      18.78      22.41      19.82
C       7.00      16.84      47.94
C       5.63      17.14      48.01
C       4.92      17.62      46.88
C       5.63      17.82      45.67
C       7.01      17.54      45.59
C       7.69      17.03      46.73
C       7.65      16.21      49.02
C       7.88      16.92      50.22
C       8.39      16.26      51.36
C       8.66      14.87      51.31
C       8.42      14.14      50.11
C       7.94      14.83      48.98
C      12.62      21.31      20.15
C      14.00      21.01      20.22
C      14.71      20.53      19.09
C      14.00      20.33      17.88
C      12.62      20.61      17.80
C      11.94      21.12      18.94
C      11.98      21.94      21.23
C      11.75      21.23      22.43
C      11.24      21.89      23.57
C      10.97      23.28      23.52
C      11.21      24.01      22.32
C      11.69      23.32      21.19
C      31.81      36.00       6.25
C      31.47      34.63       6.32
C      30.99      33.94       5.19
C      30.80      34.65       3.97
C      31.12      36.03       3.90
C      31.63      36.69       5.03
C      32.44      36.64       7.34
C      31.73      36.86       8.53
C      32.39      37.38       9.67
C      33.78      37.65       9.62
C      34.51      37.42       8.42
C      33.82      36.93       7.29
C      27.36       2.15      34.04
C      27.69       3.52      34.11
C      28.18       4.21      32.98
C      28.36       3.50      31.76
C      28.04       2.12      31.69
C      27.53       1.46      32.82
C      26.72       1.51      35.13
C      27.43       1.28      36.32
C      26.78       0.77      37.46
C      25.38       0.50      37.41
C      24.66       0.73      36.22
C      25.34       1.22      35.08
C      12.67      16.91      35.12
C      14.05      17.19      35.08
C      14.74      17.68      36.21
C      14.01      17.92      37.41
C      12.61      17.64      37.46
C      11.96      17.13      36.32
C      12.04      16.26      34.04
C      11.85      16.94      32.82
C      11.35      16.26      31.69
C      11.07      14.88      31.76
C      11.27      14.17      32.98
C      11.74      14.88      34.11
C       6.95      21.24       7.34
C       5.57      20.95       7.29
C       4.89      20.46       8.43
C       5.62      20.23       9.62
C       7.01      20.50       9.67
C       7.66      21.02       8.53
C       7.58      21.89       6.25
C       7.78      21.21       5.04
C       8.28      21.88       3.91
C       8.56      23.27       3.98
C       8.35      23.98       5.19
C       7.88      23.27       6.32
C      27.43      35.96      21.24
C      27.74      34.59      21.19
C      28.24      33.91      22.33
C      28.45      34.64      23.53
C      28.15      36.02      23.58
C      27.63      36.67      22.44
C      26.77      36.58      20.15
C      27.45      36.77      18.94
C      26.78      37.27      17.80
C      25.40      37.56      17.88
C      24.69      37.36      19.10
C      25.40      36.88      20.23
C      31.74       2.19      49.03
C      31.42       3.56      48.98
C      30.92       4.24      50.12
C      30.71       3.51      51.32
C      31.01       2.12      51.37
C      31.53       1.48      50.22
C      32.39       1.57      47.94
C      31.71       1.38      46.73
C      32.38       0.87      45.59
C      33.77       0.59      45.67
C      34.48       0.79      46.88
C      33.77       1.27      48.01
C      32.42      21.30       7.44
C      33.79      20.97       7.37
C      34.49      20.48       8.50
C      33.78      20.30       9.72
C      32.40      20.62       9.79
C      31.74      21.13       8.66
C      31.78      21.93       6.35
C      31.56      21.23       5.16
C      31.05      21.88       4.02
C      30.77      23.27       4.07
C      31.00      24.00       5.26
C      31.49      23.31       6.40
C      26.74      16.85      35.23
C      25.37      17.19      35.16
C      24.67      17.68      36.29
C      25.38      17.86      37.51
C      26.76      17.54      37.58
C      27.42      17.02      36.45
C      27.38      16.22      34.14
C      27.60      16.92      32.95
C      28.12      16.27      31.81
C      28.39      14.88      31.86
C      28.16      14.15      33.06
C      27.67      14.84      34.19
C       7.55       2.14      49.12
C       7.89       3.51      49.05
C       8.38       4.21      50.18
C       8.56       3.50      51.40
C       8.24       2.12      51.47
C       7.72       1.46      50.34
C       6.92       1.50      48.03
C       7.63       1.30      46.83
C       6.99       0.77      45.69
C       5.61       0.47      45.74
C       4.87       0.68      46.94
C       5.55       1.18      48.08
C      12.08      36.01      21.33
C      11.73      34.64      21.26
C      11.24      33.95      22.39
C      11.06      34.66      23.60
C      11.39      36.03      23.68
C      11.91      36.69      22.54
C      12.70      36.65      20.24
C      11.99      36.85      19.04
C      12.64      37.38      17.90
C      14.02      37.68      17.95
C      14.75      37.47      19.15
C      14.07      36.97      20.28
C      26.70      21.24      20.24
C      25.32      20.92      20.29
C      24.65      20.42      19.15
C      25.38      20.21      17.95
C      26.76      20.51      17.90
C      27.41      21.03      19.05
C      27.32      21.89      21.33
C      27.51      21.21      22.55
C      28.01      21.88      23.68
C      28.30      23.27      23.61
C      28.10      23.97      22.39
C      27.62      23.26      21.26
C      32.47      16.91      48.03
C      33.84      17.23      48.08
C      34.52      17.73      46.94
C      33.79      17.95      45.74
C      32.40      17.64      45.69
C      31.76      17.12      46.83
C      31.85      16.26      49.12
C      31.66      16.94      50.33
C      31.16      16.27      51.46
C      30.87      14.89      51.39
C      31.07      14.18      50.18
C      31.55      14.89      49.05
C      12.01       2.18      34.14
C      11.69       3.56      34.19
C      11.19       4.23      33.05
C      10.97       3.50      31.85
C      11.28       2.12      31.80
C      11.81       1.48      32.94
C      12.65       1.56      35.23
C      11.97       1.39      36.45
C      12.63       0.87      37.58
C      14.01       0.55      37.51
C      14.72       0.73      36.29
C      14.02       1.22      35.16
C       7.61      35.96       6.35
C       7.94      34.59       6.40
C       8.44      33.91       5.26
C       8.65      34.65       4.06
C       8.35      36.03       4.01
C       7.82      36.67       5.15
C       6.97      36.59       7.44
C       7.65      36.76       8.66
C       6.99      37.27       9.79
C       5.61      37.59       9.72
C       4.91      37.41       8.50
C       5.60      36.92       7.37
C       7.72      17.57      44.37
C       8.17      16.37      43.79
C       8.99      16.40      42.65
C       9.37      17.64      42.08
C       8.08      18.79      43.76
C      10.23      17.71      40.96
C      10.75      18.93      40.45
C      11.58      18.92      39.31
C      11.89      17.70      38.67
C      11.36      16.51      39.22
C      11.91      20.58      16.58
C      11.46      21.78      16.00
C      10.64      21.75      14.86
C      10.26      20.51      14.30
C      11.54      19.36      15.97
C       9.39      20.43      13.17
C       8.87      19.22      12.66
C       8.04      19.23      11.52
C       7.73      20.45      10.89
C       8.25      21.64      11.44
C      31.09      36.73       2.68
C      32.29      37.20       2.10
C      32.27      38.02       0.97
C      31.03      38.40       0.40
C      29.88      37.10       2.06
C      30.95      39.27      54.85
C      29.73       0.25      54.35
C      29.74       1.08      53.21
C      30.96       1.39      52.58
C      32.15       0.88      53.13
C      28.07       1.42      30.47
C      26.87       0.95      29.89
C      26.90       0.13      28.76
C      28.14      39.29      28.19
C      29.29       1.05      29.86
C      28.21      38.42      27.07
C      29.43      37.90      26.56
C      29.42      37.07      25.43
C      28.20      36.75      24.79
C      27.01      37.27      25.34
C      31.69      20.59      11.02
C      31.23      21.79      11.59
C      30.41      21.77      12.73
C      30.03      20.53      13.29
C      31.33      19.37      11.63
C      29.16      20.45      14.42
C      28.64      19.23      14.92
C      27.81      19.24      16.06
C      27.50      20.46      16.69
C      28.01      21.65      16.15
C      27.47      17.56      38.81
C      27.93      16.36      39.38
C      28.75      16.39      40.52
C      29.13      17.63      41.08
C      27.84      18.78      39.42
C      30.00      17.70      42.20
C      30.52      18.92      42.71
C      31.36      18.91      43.84
C      31.67      17.69      44.48
C      31.15      16.50      43.93
C       8.27       1.41      52.69
C       7.06       0.94      53.27
C       7.09       0.13      54.40
C       8.33      39.29      54.97
C       9.48       1.04      53.31
C       8.41      38.42       0.52
C       9.63      37.91       1.03
C       9.61      37.07       2.17
C       8.39      36.76       2.80
C       7.20      37.28       2.25
C      11.36      36.74      24.90
C      12.56      37.21      25.47
C      12.53      38.02      26.61
C      11.29      38.40      27.18
C      10.14      37.11      25.51
C      11.22      39.27      28.31
C      10.00       0.24      28.81
C      10.01       1.08      29.95
C      11.23       1.39      30.59
C      12.42       0.87      30.04
C      27.48      37.31      16.58
C      27.94      36.11      16.00
C      28.76      36.13      14.86
C      29.14      37.37      14.30
C      27.85      38.52      15.97
C      30.00      37.45      13.17
C      30.52      38.67      12.66
C      31.35      38.65      11.52
C      31.66      37.43      10.88
C      31.14      36.24      11.44
C      31.68       0.84      44.37
C      31.22       2.04      43.79
C      30.41       2.01      42.65
C      30.02       0.77      42.09
C      31.31      39.16      43.76
C      29.16       0.70      40.96
C      28.64      39.02      40.45
C      27.81      39.04      39.31
C      27.50       0.72      38.67
C      28.02       1.91      39.23
C      11.32      16.97      30.46
C      12.52      17.42      29.88
C      12.49      18.24      28.75
C      11.25      18.63      28.19
C      10.10      17.34      29.86
C      11.17      19.50      27.06
C       9.95      20.02      26.56
C       9.97      20.85      25.42
C      11.19      21.16      24.78
C      12.38      20.64      25.33
C       8.31      21.18       2.68
C       7.11      20.72       2.10
C       7.14      19.90       0.96
C       8.38      19.52       0.40
C       9.53      20.80       2.08
C       8.46      18.65      54.86
C       9.67      18.13      54.35
C       9.66      17.30      53.21
C       8.44      16.99      52.57
C       7.25      17.51      53.12
C      11.92       0.85      38.80
C      11.46       2.05      39.38
C      10.64       2.02      40.51
C      10.26       0.78      41.08
C      11.55      39.17      39.42
C       9.39       0.70      42.20
C       8.87      39.03      42.71
C       8.04      39.04      43.85
C       7.72       0.72      44.48
C       8.24       1.91      43.93
C       7.70      37.30      11.02
C       8.16      36.10      11.59
C       8.98      36.13      12.73
C       9.37      37.37      13.29
C       8.07      38.52      11.63
C      10.24      37.44      14.41
C      10.75      38.66      14.92
C      11.59      38.65      16.05
C      11.91      37.43      16.69
C      11.39      36.24      16.14
C      28.04      21.18      24.90
C      26.84      20.72      25.48
C      26.87      19.90      26.62
C      28.11      19.52      27.19
C      29.26      20.81      25.51
C      28.19      18.65      28.31
C      29.41      18.14      28.82
C      29.39      17.31      29.96
C      28.17      17.00      30.60
C      26.98      17.52      30.04
C      31.12      16.98      52.69
C      32.32      17.43      53.27
C      32.29      18.25      54.41
C      31.05      18.63      54.97
C      29.90      17.35      53.30
C      30.97      19.50       0.52
C      29.76      20.02       1.03
C      29.77      20.85       2.17
C      30.99      21.15       2.80
C      32.18      20.63       2.25
C       8.47      12.72      50.09
C       7.31      11.99      49.75
C       7.33      10.58      49.74
C       8.51       9.89      50.08
C       9.63      11.99      50.43
C       8.57       8.46      50.10
C       9.72       7.72      50.49
C       9.67       6.31      50.50
C       8.49       5.62      50.13
C       7.38       6.40      49.74
C      11.16      25.43      22.30
C      12.32      26.17      21.96
C      12.30      27.57      21.95
C      11.11      28.27      22.29
C      10.00      26.16      22.64
C      11.06      29.69      22.31
C       9.91      30.43      22.69
C       9.96      31.84      22.71
C      11.13      32.53      22.33
C      12.25      31.75      21.95
C      35.93      37.47       8.40
C      36.67      36.32       8.06
C      38.07      36.34       8.06
C      38.76      37.53       8.39
C      36.65      38.63       8.74
C       0.65      37.59       8.42
C       1.38      38.74       8.80
C       2.79      38.69       8.82
C       3.49      37.52       8.45
C       2.71      36.41       8.06
C      23.23       0.68      36.19
C      22.49       1.83      35.85
C      21.09       1.81      35.85
C      20.40       0.62      36.19
C      22.51      39.06      36.53
C      18.97       0.56      36.21
C      18.24      38.95      36.59
C      16.83      38.99      36.61
C      16.14       0.63      36.24
C      16.91       1.74      35.85
C      11.20      12.75      33.03
C      12.34      12.01      33.41
C      12.31      10.60      33.44
C      11.12       9.92      33.08
C      10.04      12.03      32.68
C      11.05       8.49      33.07
C       9.89       7.76      32.71
C       9.92       6.35      32.71
C      11.10       5.65      33.08
C      12.22       6.42      33.43
C       8.42      25.40       5.25
C       7.28      26.14       5.63
C       7.31      27.55       5.65
C       8.50      28.23       5.29
C       9.58      26.12       4.89
C       8.57      29.66       5.29
C       9.73      30.39       4.93
C       9.70      31.80       4.93
C       8.53      32.49       5.29
C       7.40      31.72       5.64
C      23.27      37.43      19.15
C      22.52      36.29      19.53
C      21.12      36.33      19.55
C      20.44      37.52      19.19
C      22.55      38.59      18.80
C      19.01      37.59      19.18
C      18.29      38.75      18.82
C      16.88      38.73      18.81
C      16.17      37.56      19.18
C      16.94      36.42      19.53
C      35.90       0.72      46.94
C      36.65       1.86      47.32
C      38.05       1.82      47.34
C      38.73       0.63      46.98
C      36.61      39.10      46.58
C       0.62       0.56      46.97
C       1.34      38.94      46.61
C       2.75      38.96      46.60
C       3.45       0.59      46.97
C       2.69       1.73      47.32
C      30.95      25.42       5.29
C      32.10      26.16       5.63
C      32.07      27.57       5.63
C      30.89      28.26       5.29
C      29.78      26.14       4.95
C      30.82      29.68       5.27
C      29.67      30.41       4.89
C      29.71      31.82       4.87
C      30.88      32.52       5.24
C      32.00      31.75       5.63
C      28.21      12.73      33.08
C      27.06      11.99      33.42
C      27.09      10.58      33.42
C      28.28       9.89      33.08
C      29.38      12.01      32.74
C      28.34       8.47      33.06
C      29.49       7.74      32.68
C      29.45       6.33      32.66
C      28.28       5.63      33.03
C      27.16       6.40      33.42
C      28.17      25.39      22.33
C      27.04      26.14      21.95
C      27.08      27.54      21.93
C      28.27      28.22      22.29
C      29.34      26.10      22.69
C      28.35      29.65      22.30
C      29.51      30.37      22.66
C      29.49      31.78      22.67
C      28.32      32.49      22.30
C      27.19      31.72      21.95
C      31.00      12.76      50.12
C      32.13      12.01      49.74
C      32.09      10.60      49.72
C      30.90       9.92      50.08
C      29.83      12.05      50.48
C      30.82       8.50      50.09
C      29.65       7.78      50.45
C      29.67       6.37      50.46
C      30.84       5.66      50.09
C      31.98       6.43      49.74
C      16.16      17.73      36.19
C      16.90      16.58      35.85
C      18.30      16.60      35.85
C      18.99      17.79      36.19
C      16.88      18.89      36.53
C      20.42      17.85      36.21
C      21.15      19.00      36.59
C      22.56      18.96      36.61
C      23.26      17.78      36.24
C      22.48      16.67      35.85
C       3.46      20.41       8.40
C       2.72      21.57       8.06
C       1.32      21.55       8.06
C       0.63      20.36       8.40
C       2.74      19.25       8.74
C      38.74      20.30       8.42
C      38.01      19.15       8.80
C      36.60      19.19       8.82
C      35.91      20.37       8.45
C      36.68      21.48       8.06
C       3.50      17.69      46.94
C       2.75      16.55      47.32
C       1.35      16.59      47.34
C       0.66      17.78      46.98
C       2.78      18.85      46.58
C      38.78      17.85      46.97
C      38.05      19.02      46.61
C      36.64      18.99      46.60
C      35.94      17.82      46.96
C      36.71      16.69      47.32
C      16.13      20.46      19.15
C      16.88      21.60      19.53
C      18.28      21.56      19.55
C      18.96      20.37      19.19
C      16.85      19.30      18.79
C      20.39      20.30      19.18
C      21.11      19.14      18.82
C      22.52      19.16      18.81
C      23.22      20.33      19.18
C      22.46      21.46      19.53
N       8.89      18.77      42.67
N      10.57      16.57      40.31
N      10.73      19.38      14.88
N       9.05      21.58      12.53
N      29.89      37.92       0.98
N      32.10       0.08      54.22
N      29.27       0.23      28.77
N      27.07      38.07      26.43
N      30.51      19.39      12.71
N      28.81      21.60      15.06
N      28.65      18.76      40.50
N      30.36      16.55      42.84
N       9.47       0.23      54.40
N       7.26      38.07       1.16
N      10.16      37.92      26.60
N      12.37       0.07      28.95
N      28.66      38.51      14.88
N      30.35      36.30      12.53
N      30.50      39.18      42.67
N      28.81       1.85      40.32
N      10.11      18.15      28.77
N      12.32      19.85      26.42
N       9.51      19.99       0.99
N       7.31      18.30      54.22
N      10.74      39.19      40.50
N       9.04       1.85      42.84
N       8.89      38.50      12.71
N      10.59      36.29      15.05
N      29.25      20.00      26.60
N      27.04      18.31      28.95
N      29.92      18.16      54.39
N      32.12      19.84       1.16
N       9.61      10.63      50.41
N       7.46       7.75      49.75
N      10.02      27.52      22.62
N      12.16      30.40      21.96
N      38.01      38.62       8.72
N       1.36      36.48       8.07
N      21.15      39.07      36.51
N      18.26       1.67      35.86
N      10.05      10.67      32.72
N      12.16       7.77      33.41
N       9.58      27.48       4.93
N       7.47      30.37       5.62
N      21.19      38.59      18.83
N      18.29      36.49      19.51
N      37.97      39.10      46.62
N       1.34       1.66      47.30
N      29.80      27.50       4.97
N      31.93      30.40       5.62
N      29.37      10.65      32.76
N      27.24       7.75      33.41
N      29.34      27.46      22.65
N      27.25      30.37      21.97
N      29.83      10.69      50.44
N      31.92       7.78      49.76
N      18.24      18.88      36.51
N      21.13      16.74      35.86
N       1.38      19.27       8.72
N      38.03      21.41       8.07
N       1.42      18.85      46.62
N      38.06      16.75      47.30
N      18.20      19.30      18.83
N      21.11      21.40      19.51
O       4.96      18.20      44.54
O       9.04      14.22      52.45
O      14.67      19.95      16.75
O      10.58      23.93      24.66
O      30.41      33.99       2.84
O      34.43      38.04      10.76
O      28.75       4.16      30.63
O      24.73       0.11      38.55
O      14.65      18.30      38.55
O      10.69      14.21      30.63
O       4.97      19.84      10.76
O       8.93      23.94       2.85
O      28.85      34.00      24.67
O      24.73      37.94      16.75
O      30.31       4.15      52.45
O      34.44       0.21      44.54
O      34.44      19.90      10.85
O      30.38      23.92       2.93
O      24.72      18.25      38.64
O      28.79      14.23      30.72
O       8.96       4.15      52.53
O       4.97       0.07      44.61
O      10.67      34.00      24.73
O      14.66      38.08      16.81
O      24.74      19.80      16.82
O      28.68      23.93      24.73
O      34.43      18.35      44.60
O      30.49      14.22      52.52
O      10.57       4.14      30.72
O      14.67       0.16      38.64
O       9.06      34.01       2.93
O       4.96      37.99      10.85
