13

O       8.20       6.18       6.03
O       9.06       8.20       7.54
O      10.77      10.69       9.48
O      11.50       9.38       7.80
C       7.27       6.88       6.58
C       7.72       7.89       7.54
C       7.05       8.69       8.45
C       8.03       9.54       9.04
C       9.23       9.22       8.45
C      10.59       9.78       8.54
H       5.99       8.68       8.63
H       7.88      10.31       9.78
O       6.01       6.79       6.41
