42

C      10.59       7.58       6.03
C      11.82       8.09       5.61
C      12.98       7.63       6.24
C      12.89       6.71       7.28
C      11.62       6.26       7.66
C      11.35       5.36       8.77
C      10.16       4.27      10.26
C      11.51       4.15      10.63
C      12.20       3.50      11.74
C      13.45       3.99      12.17
C      14.14       3.37      13.21
C      13.59       2.25      13.85
C      12.35       1.76      13.43
C      11.66       2.37      12.39
C      14.38       1.55      14.92
C       8.93       3.75      10.86
C       7.92       3.27      10.01
C       6.73       2.77      10.53
C       6.52       2.74      11.91
C       7.50       3.26      12.77
C       8.69       3.76      12.25
C       5.28       2.10      12.44
H       9.65       7.91       5.60
H      11.87       8.84       4.83
H      13.95       8.02       5.93
H      13.77       6.36       7.81
H      13.89       4.87      11.69
H      15.11       3.74      13.53
H      11.94       0.88      13.93
H      10.70       1.97      12.06
H       8.07       3.28       8.93
H       5.95       2.39       9.87
H       7.30       3.27      13.84
H       9.45       4.16      12.93
H      13.27       4.89       9.58
N      10.49       6.68       7.02
N      10.10       5.01       9.10
N      12.22       4.85       9.67
O      13.82       0.51      15.43
O      15.53       1.98      15.21
O       4.62       1.29      11.71
O       4.92       2.37      13.65
