52

C       0.47       8.54       3.86
C      -0.48       9.47       3.12
H       1.81       6.63       2.01
C       6.16       7.36       8.86
C       7.28       7.51       9.87
H       2.91       9.63       5.55
H       7.21       5.69       6.64
O       3.53      10.59       7.89
H       7.02       3.76       5.20
O       5.89      10.43       7.93
O       2.89       1.63       1.08
O       5.25       1.47       1.12
O       5.83       2.17       3.66
O       2.44       4.47       1.02
O       1.79       8.81       3.44
O       6.59       7.89       7.63
H       4.83       2.23       5.55
H       6.00       0.93       5.29
H       4.44      -0.00       3.45
H       3.84      -0.09       5.15
H       3.20       1.18       4.05
H       2.76       3.90       0.29
H       0.38       8.74       4.95
H       0.14       7.50       3.65
H      -0.44       9.27       2.03
H      -1.52       9.31       3.48
H      -0.20      10.53       3.30
H       5.91       6.28       8.76
H       5.27       7.91       9.24
H       7.56       8.58       9.99
H       6.94       7.12      10.85
H       8.18       6.94       9.55
C       4.68      10.05       7.54
C       5.11       3.31       3.35
C       4.18       3.28       2.28
C       3.34       4.41       2.07
C       3.40       5.51       2.96
C       4.37       5.55       3.98
C       5.27       4.47       4.13
C       2.53       6.61       2.82
C       2.58       7.70       3.70
C       3.54       7.73       4.73
C       4.46       6.66       4.86
C       5.47       6.71       5.84
C       6.40       5.67       5.92
C       6.30       4.56       5.09
C       3.62       8.81       5.63
C       4.61       8.87       6.62
C       5.55       7.81       6.72
C       4.10       2.05       1.43
C       5.23       1.53       4.78
C       4.11       0.60       4.33
