180

Co       8.84       0.19       7.24
Co      15.69       7.23       0.00
Co       7.39       3.17      11.59
Co      14.25      11.66       2.88
H       6.97       6.08      11.58
H       8.23       8.15      11.01
H      11.15       0.28       5.25
H      12.58      10.41      10.39
H      15.12      14.20       9.39
H      11.40      12.28       6.01
H      13.32      12.65       9.67
H      11.60       7.84       8.42
H       9.98       8.49       8.47
H      17.56      14.47       5.13
H      11.74       5.68      10.56
H      10.59       9.99       6.58
H      10.29       3.69      11.07
H      11.92       8.22      10.83
H      10.45       9.19      10.93
H      17.58      13.91       9.42
H       5.91      13.37       8.08
H       5.86      13.43       6.31
H       7.82       3.12       8.69
H       6.55       3.63       6.61
H      17.35       9.59      14.34
H      15.92       4.19       4.33
H      13.39       5.10       0.52
H       3.39       8.51       2.34
H      15.19       4.84       2.07
H      16.89       6.22       6.84
H       4.80       6.16       6.19
H      10.94       9.34       0.12
H      16.76       4.14       9.06
H       4.20       8.00       4.65
H       4.49       3.69      11.07
H       2.86       3.80       6.53
H       4.34       3.68       5.57
H      10.92       5.07       0.80
H       8.87       6.42       1.30
H       8.93       8.19       1.20
H      14.68       8.75       2.91
H      13.41       6.69       3.46
H      10.50      14.56       9.22
H       9.06       4.43       4.08
H       6.53       0.64       5.09
H      10.24       2.56       8.46
H       8.33       2.19       4.80
H      10.04       7.00       6.05
H      11.67       6.34       6.00
H       4.08       0.36       9.34
H       9.90       9.16       3.91
H      11.06       4.85       7.89
H      11.35      11.15       3.41
H       9.72       6.61       3.63
H      11.20       5.65       3.54
H       4.06       0.93       5.05
H      15.73       1.47       6.39
H      15.79       1.41       8.16
H      13.83      11.71       5.80
H      15.09      11.21       7.88
H       4.29       5.26       0.14
H       5.72      10.65      10.16
H       8.25       9.75      13.96
H      18.27       6.33      12.14
H       6.44      10.00      12.42
H       4.76       8.61       7.64
H      16.85       8.68       8.29
H      10.70       5.50      14.35
H       4.89      10.70       5.43
H      17.46       6.82       9.83
H      17.15      11.15       3.42
H      18.79      11.04       7.95
H      17.31      11.16       8.92
H      10.72       9.77      13.67
H      12.77       8.42      13.17
H      12.71       6.65      13.27
C       8.01       6.04      11.30
C       8.74       7.18      10.99
C      11.50       9.98       8.54
C      15.69      14.55       6.16
C      10.11       7.09      10.73
C      12.29      10.76       9.40
C      15.69      14.24       8.46
C      11.63      11.82       6.97
C      12.72      12.03       9.00
C      10.98       8.61       8.91
C      17.07      14.40       6.10
C      17.80      14.14       7.27
C      10.68       5.81      10.75
C      11.19      10.54       7.30
C       9.90       4.70      11.04
C      10.91       8.33      10.42
C      17.08      14.09       8.47
C      19.29      13.97       7.22
C       6.77       3.40       8.73
C       6.05       3.67       7.57
C       3.28       6.04       4.70
C      12.82       8.31       0.08
C       4.68       3.94       7.65
C       2.49       5.16       3.95
C      12.81       6.02       0.45
C       3.16       7.56       2.83
C      15.79       5.53       2.67
C       3.80       5.71       6.09
C      11.43       8.37       0.22
C      10.70       7.21       0.51
C       4.10       3.95       8.93
C       3.60       7.27       4.11
C       4.89       3.69      10.05
C       3.88       4.21       6.41
C      11.42       6.02       0.60
C       9.21       7.26       0.68
C      13.63       8.80       3.18
C      12.91       7.65       3.48
C      10.14       4.86       5.93
C       5.96       0.29       8.31
C      11.54       7.74       3.74
C       9.35       4.08       5.07
C       5.96       0.60       6.01
C      10.01       3.02       7.50
C       8.93       2.81       5.47
C      10.66       6.23       5.56
C       4.58       0.43       8.37
C       3.85       0.69       7.20
C      10.96       9.02       3.73
C      10.46       4.29       7.17
C      11.75      10.14       3.44
C      10.73       6.51       4.05
C       4.57       0.75       6.00
C       2.36       0.87       7.25
C      14.87      11.43       5.76
C      15.60      11.17       6.91
C      18.37       8.79       9.78
C       8.82       6.53      14.40
C      16.97      10.90       6.83
C      19.15       9.67      10.53
C       8.83       8.82      14.03
C      18.49       7.28      11.66
C       5.85       9.31      11.82
C      17.85       9.12       8.40
C      10.20       6.47      14.25
C      10.93       7.63      13.96
C      17.54      10.88       5.55
C      18.05       7.56      10.37
C      16.76      11.14       4.43
C      17.77      10.63       8.07
C      10.21       8.83      13.87
C      12.43       7.58      13.79
S       8.76       0.58      10.65
S       6.02       4.19      14.17
S      12.89      14.26       3.82
S      15.61      10.65       0.31
N      12.39      12.57       7.81
N      14.99      14.45       7.32
N       8.57       4.81      11.32
N      16.11       6.71       2.10
N      13.51       7.16       0.22
N       6.21       3.41       9.95
N       9.25       2.27       6.66
N       6.66       0.39       7.15
N      13.07      10.03       3.16
N      19.24       8.13      12.39
N       8.13       7.69      14.26
N      15.43      11.42       4.53
O       8.84       1.96      11.37
O       8.77       0.95       9.15
O      11.46      14.36      10.99
O      13.94      14.28      10.99
O       5.94       3.43      12.81
O       6.01       5.67      13.76
O       3.33       3.49       0.38
O      14.56       3.48       0.46
O      12.81      12.88       3.10
O      12.88      13.89       5.32
O      10.19       0.47       3.49
O       7.71       0.55       3.48
O      15.71      11.40       1.68
O      15.63       9.16       0.71
O      18.29      11.35      14.14
O       7.05      11.36      14.00
