14

C       5.57      23.08       8.51
C       4.21      23.13       8.19
C       3.59      21.93       7.85
N       6.46      24.08       8.88
H       3.65      24.06       8.23
C       7.64      23.45       9.08
H       8.54      23.97       9.38
H       2.53      21.93       7.60
N       7.59      22.12       8.88
H       6.18      19.69       8.23
H       3.76      19.79       7.59
C       6.28      21.85       8.51
C       5.64      20.64       8.19
C       4.29      20.71       7.85
