14

H     -22.51      19.90      23.78
H     -24.60      19.13      24.93
C     -21.36      17.09      25.41
C     -22.52      16.67      26.07
C     -23.68      17.43      25.87
H     -22.52      15.78      26.69
H     -24.60      17.12      26.35
N     -20.08      18.39      24.05
N     -20.08      16.53      25.36
C     -19.38      17.34      24.53
H     -18.34      17.14      24.26
C     -21.35      18.25      24.59
C     -22.52      19.02      24.42
C     -23.67      18.58      25.06
