14

N     -15.35      14.36      25.71
C     -15.78      13.53      24.66
C     -16.49      14.80      26.29
C     -15.05      12.81      23.71
H     -16.49      15.46      27.15
C     -17.20      13.53      24.66
C     -17.92      12.80      23.71
H     -19.01      12.79      23.71
C     -17.19      12.09      22.76
N     -17.62      14.35      25.71
C     -15.78      12.10      22.76
H     -17.72      11.52      22.00
H     -13.97      12.80      23.70
H     -15.25      11.53      22.00
