14

C       7.43      11.78      11.01
N       3.72      12.72      12.60
H       6.25      10.70       9.55
H       8.38      11.49      10.57
C       5.05      12.53      12.21
C       6.25      12.99      12.78
C       7.43      12.59      12.16
C       2.99      12.04      11.69
N       3.72      11.41      10.74
H       1.90      12.01      11.71
H       6.25      13.61      13.66
H       8.38      12.92      12.58
C       5.05      11.71      11.05
C       6.25      11.33      10.44
