14

N     -11.03      11.35      25.92
N     -12.17      13.32      25.92
H     -12.17      12.01      27.62
C     -11.84      12.20      26.61
C     -11.54      13.19      24.69
C     -11.58      14.01      23.56
C     -10.90      13.56      22.43
H      -9.60      10.58      23.55
H      -9.69      12.03      21.52
H     -12.13      14.95      23.55
H     -10.92      14.15      21.52
C     -10.83      11.97      24.69
C     -10.14      11.52      23.56
C     -10.20      12.34      22.43
