14

C     -13.31       0.72      26.07
C     -13.24      -0.66      25.87
N     -10.61       1.98      24.05
H     -10.51      -0.89      23.78
H     -12.22      -2.31      24.93
C     -11.36       0.94      24.59
N     -12.22       2.90      25.36
C     -12.24      -1.24      25.06
C     -11.28      -0.45      24.41
H     -10.82       4.10      24.26
H     -14.09       1.16      26.69
H     -13.97      -1.31      26.35
C     -11.17       3.11      24.53
C     -12.37       1.51      25.41
