14

N       9.59      -0.78      19.36
H      12.01       1.89      21.96
H      14.04       1.67      20.52
H       7.82      -0.49      20.55
C       8.87      -0.27      20.39
H      12.01      -1.03      17.84
H      14.04       0.25      18.52
C      10.87       0.54      20.68
C      12.02       1.25      21.08
C      13.14       1.12      20.27
N       9.59       0.53      21.22
C      10.87      -0.27      19.53
C      12.01      -0.41      18.73
C      13.14       0.31      19.12
