14

N       2.93      -7.07      23.81
C       3.17      -6.98      25.14
C       2.50      -4.98      24.59
H       3.53      -7.81      25.73
C       2.09      -3.64      24.53
H       2.05      -3.02      25.43
C       1.71      -3.14      23.29
H       1.39      -2.11      23.20
N       2.93      -5.76      25.66
C       2.49      -5.80      23.43
C       2.09      -5.30      22.19
C       1.71      -3.96      22.14
H       2.05      -5.93      21.31
H       1.39      -3.53      21.19
