14

H      -6.16      17.86       5.63
H      -3.75      18.49       5.75
H      -3.63      19.32       1.51
H      -2.51      19.20       3.74
C      -6.26      18.31       3.51
N      -6.44      18.71       1.28
C      -5.63      18.21       4.75
C      -4.28      18.55       4.80
C      -7.62      18.30       1.80
H      -8.52      18.20       1.21
C      -5.55      18.72       2.35
C      -4.19      19.04       2.41
C      -3.57      18.96       3.65
N      -7.57      18.05       3.12
