14

C      12.67      -1.50      11.05
C      12.94      -0.27      10.44
H      14.92      -1.41      13.66
C      13.92       0.54      11.01
H      15.38       0.79      12.58
C      11.92      -3.44      11.69
H      11.35      -4.37      11.71
C      13.38      -1.91      12.21
C      14.37      -1.10      12.78
C      14.62       0.13      12.16
N      11.74      -2.50      10.74
N      12.88      -3.15      12.60
H      12.40       0.05       9.55
H      14.15       1.50      10.57
