14

C     -11.28      -4.12      19.22
C     -12.24      -4.99      19.75
C     -11.17      -3.04      15.83
H     -10.82      -2.46      14.99
N     -12.22      -3.89      15.75
H     -14.09      -5.73      16.94
C     -12.37      -4.41      17.04
C     -13.32      -5.29      17.57
C     -13.24      -5.57      18.93
N     -10.61      -2.96      17.06
H     -13.97      -6.23      19.39
H     -10.52      -3.67      19.85
H     -12.22      -5.22      20.81
C     -11.37      -3.83      17.85
