14

C       7.63      -4.41      17.86
H       8.53      -4.93      17.56
H       6.17      -0.65      18.72
H       3.76      -0.75      19.35
C       5.56      -4.03      18.44
N       6.45      -5.04      18.06
C       5.64      -1.60      18.76
C       6.27      -2.80      18.44
C       4.29      -1.66      19.10
H       3.64      -5.02      18.72
H       2.52      -2.88      19.35
N       7.58      -3.08      18.06
C       4.20      -4.08      18.76
C       3.58      -2.88      19.10
