14

N     -17.63       3.87      25.93
H     -13.98       3.02      23.55
C     -15.79       3.39      24.69
C     -15.06       3.02      23.55
C     -15.79       2.66      22.43
C     -16.49       4.14      26.61
C     -17.20       2.65      22.43
H     -19.02       3.01      23.56
H     -17.72       2.37      21.52
N     -15.36       3.87      25.92
H     -16.50       4.53      27.62
C     -17.20       3.39      24.69
C     -17.93       3.01      23.56
H     -15.27       2.38      21.52
