14

H       3.50       7.00      20.55
N       4.13       8.68      19.36
C       4.21       7.80      20.39
C       5.92       9.13      20.68
C       7.10       9.76      21.08
N       5.26       8.02      21.22
H       7.65       9.45      21.96
C       7.55      10.80      20.27
H       8.48      11.31      20.52
C       5.21       9.54      19.53
C       5.67      10.59      18.73
C       6.85      11.21      19.12
H       5.13      10.90      17.84
H       7.25      12.02      18.53
