14

H      -3.51      26.86       1.22
N      -2.91      26.11       3.13
C      -2.48      24.02       2.35
C      -2.08      22.68       2.41
C      -1.70      22.18       3.66
H      -2.04      22.06       1.52
H      -1.38      21.15       3.74
C      -2.48      24.84       3.51
N      -2.91      24.80       1.28
C      -2.08      24.34       4.75
C      -1.70      23.00       4.81
C      -3.15      26.02       1.81
H      -2.04      24.97       5.63
H      -1.38      22.57       5.75
