14

H      -2.09      10.95      19.86
H      -1.58      13.20      20.82
H      -3.28      10.60      14.99
C      -2.36      12.91      17.04
C      -2.06      14.17      17.57
N      -2.74      10.67      17.07
H      -2.07      15.06      16.95
C      -1.79      14.25      18.94
H      -1.58      15.21      19.39
N      -2.73      12.53      15.75
C      -2.37      11.75      17.86
C      -2.07      11.83      19.23
C      -1.80      13.09      19.75
C      -2.94      11.19      15.84
