14

N     -24.36      20.86      17.06
C     -25.48      20.64      17.85
C     -25.70      20.85      19.22
C     -26.93      20.46      19.75
N     -25.97      19.93      15.75
C     -26.49      20.06      17.04
C     -27.73      19.68      17.57
C     -27.93      19.88      18.93
H     -24.92      21.29      19.85
H     -27.12      20.59      20.81
C     -24.71      20.42      15.83
H     -24.02      20.42      14.98
H     -28.49      19.23      16.94
H     -28.87      19.58      19.39
