14

H      10.35       1.22      17.40
H      10.73       3.46      16.37
N       7.33       0.04      14.35
C       7.56      -0.93      15.25
H       7.83       2.68      13.28
H       7.04      -1.89      15.23
C       8.16       1.10      14.73
C       8.37       2.36      14.17
C       9.31       3.19      14.78
H       9.50       4.17      14.36
C       8.87       0.69      15.89
C       9.80       1.53      16.51
C      10.01       2.78      15.93
N       8.47      -0.61      16.20
