14

C     -13.37       6.90      24.66
C     -14.36       6.64      23.71
C     -14.61       7.62      22.76
C     -11.91       6.87      26.28
H     -12.38      10.06      23.70
H     -14.13       9.58      22.00
H     -11.34       6.55      27.15
N     -12.87       6.12      25.71
H     -14.92       5.70      23.71
C     -12.66       8.12      24.66
C     -12.92       9.12      23.71
C     -13.91       8.84      22.76
H     -15.37       7.45      22.00
N     -11.73       8.08      25.71
