14

H     -10.52      19.94       3.15
H     -12.23      21.36       2.01
C     -11.17      15.94       2.41
C     -11.36      18.11       2.34
C     -11.29      19.50       2.52
C     -12.24      20.28       1.88
H     -10.82      14.95       2.68
H     -13.97      20.36       0.59
H     -14.09      17.88       0.25
C     -12.37      17.53       1.53
C     -13.32      18.33       0.87
N     -10.61      17.08       2.89
N     -12.22      16.15       1.58
C     -13.24      19.71       1.07
