14

N       2.75      12.52      15.75
C       2.38      12.91      17.04
C       2.09      14.18      17.57
C       1.81      14.25      18.94
N       2.75      10.67      17.06
C       2.96      11.19      15.83
H       3.29      10.59      14.99
C       2.38      11.75      17.86
C       2.08      11.83      19.23
C       1.81      13.10      19.75
H       2.10      15.07      16.95
H       1.60      15.22      19.39
H       2.08      10.95      19.85
H       1.60      13.20      20.81
