14

H     -10.91      15.56      20.52
C     -10.83      19.28      19.52
C     -10.13      18.36      18.73
N     -12.17      19.99      21.21
C     -10.19      17.02      19.12
H     -12.17      22.03      20.54
C     -11.83      21.01      20.39
H     -12.13      17.21      21.95
C     -11.54      18.87      20.68
C     -11.58      17.53      21.07
C     -10.90      16.62      20.26
N     -11.03      20.65      19.36
H      -9.59      18.67      17.84
H      -9.69      16.27      18.52
