22

N       0.09       4.80       7.00
N       0.24      11.08       8.00
O       1.05       8.74       4.65
H       0.38       2.94       6.07
H       1.71       3.86       4.17
H       2.09       6.37       4.04
H      -0.09       6.73       7.74
H       2.16       7.71       8.30
H       1.90       9.24      10.30
H       0.63      11.37      10.03
H      -0.01      10.60       5.98
C       0.59       4.00       5.99
C       1.33       4.54       4.94
C       1.55       5.91       4.86
C       1.05       6.74       5.90
C       0.35       6.12       6.94
C       1.06       8.20       5.78
C       1.02       9.02       7.00
C       1.59       8.64       8.24
C       1.45       9.49       9.34
C       0.76      10.69       9.20
C       0.41      10.28       6.92
