22

O       2.22       0.31      10.96
H       2.89       6.11       9.54
H       1.56       5.19      11.43
H       1.19       2.68      11.57
H       3.37       2.33       7.88
H       1.12       1.34       7.31
H       1.38      -0.19       5.31
H       2.65      -2.31       5.58
H       3.30      -1.54       9.63
C       2.69       5.05       9.62
C       1.94       4.52      10.67
C       1.73       3.14      10.75
C       2.23       2.31       9.71
C       2.93       2.93       8.67
C       2.21       0.85       9.83
C       2.26       0.03       8.61
C       1.69       0.42       7.37
C       1.83      -0.43       6.27
C       2.52      -1.63       6.41
C       2.87      -1.22       8.69
N       3.18       4.26       8.61
N       3.05      -2.03       7.61
