22

O       3.86       8.50       5.75
H       3.74      12.84       9.91
H       5.13      10.77       9.99
H       5.28       9.31       7.92
H       2.73      12.15       5.93
H       5.07      12.13       4.73
H       4.67      13.20       2.49
H       3.30      11.99       0.79
H       2.79       8.75       3.38
C       3.83      12.19       9.04
C       4.61      11.04       9.07
C       4.71      10.23       7.93
C       4.03      10.64       6.76
C       3.29      11.82       6.80
C       3.92       9.75       5.57
C       3.87      10.39       4.25
C       4.45      11.66       3.98
C       4.23      12.23       2.73
C       3.50      11.56       1.77
C       3.21       9.73       3.21
N       3.17      12.59       7.91
N       2.99      10.30       2.00
