258

C       3.72       8.36       0.73
C       2.51       8.97       1.19
C       2.16       8.93       2.58
C       3.16       8.50       3.48
C       4.43       8.03       3.09
C       4.65       7.85       1.69
C       1.67       9.57       0.22
C       5.76       7.13       1.19
C       3.97       8.24      34.99
C       3.13       8.89      34.04
C       3.40       8.80      32.64
C       4.41       7.90      32.23
C       5.22       7.17      33.13
C       5.05       7.42      34.53
C       1.99       9.56      34.53
C       5.94       6.89      35.49
C       5.36       7.82       4.15
C       6.09       6.18      32.60
C       2.75       9.50      31.58
C       0.87       9.24       3.10
C      14.38       8.71      12.62
C      15.51       9.45      13.08
C      -5.36       9.77      14.47
C      14.78       9.12      15.37
C      13.73       8.25      14.98
C      13.46       8.15      13.58
C      -4.56       9.88      12.11
C      12.28       7.56      13.08
C      14.14       8.55      11.21
C      15.13       8.95      10.26
C      14.92       8.76       8.86
C      13.63       8.33       8.45
C      12.59       8.00       9.35
C      12.90       8.02      10.75
C      -4.72       9.61      10.75
C      11.99       7.52      11.72
C      13.09       7.56      16.04
C      11.30       7.74       8.82
C      -5.16       8.97       7.80
C      -4.44      10.73      14.99
C      -1.15      17.49      24.51
C      -1.07      16.14      24.97
C      -0.87      15.86      26.36
C      -1.00      16.94      27.26
C       9.27       0.09      26.87
C       9.32       0.37      25.47
C      -1.18      15.12      24.00
C       9.39       1.69      24.97
C      -1.18      17.78      23.10
C      -1.32      16.72      22.15
C      -1.38      17.00      20.75
C       9.40       0.14      20.34
C       9.63       1.20      21.24
C       9.49       0.93      22.64
C      -1.33      15.39      22.64
C       9.51       1.96      23.60
C       8.99       0.99      27.93
C      10.05       2.45      20.71
C      -1.66      16.09      19.69
C      -0.50      14.59      26.87
C       8.04       3.15      28.70
C       7.56       4.39      28.22
C       7.00       5.35      29.10
C       6.92       5.10      30.49
C       7.44       3.88      30.98
C       7.98       2.93      30.10
C       6.63       6.84      27.24
C       7.20       5.88      26.36
C       6.13       8.19      26.86
C       6.98       9.33      27.48
C       7.38       6.06      24.90
C       6.08       5.81      24.10
C       7.71       7.57       4.93
C       9.02       7.36       4.44
C      10.13       7.37       5.32
C       9.95       7.56       6.71
C       8.64       7.72       7.20
C       7.54       7.73       6.32
C      11.61       6.94       3.46
C      10.49       6.93       2.58
C      13.02       6.70       3.09
C      13.58       5.40       3.70
C      10.55       6.69       1.12
C      10.99       7.94       0.32
C      11.69       5.65      16.82
C      10.86       4.62      16.33
C      10.31       3.65      17.21
C      10.57       3.71      18.60
C      11.36       4.77      19.09
C      11.92       5.72      18.21
C       9.20       2.59      15.35
C       9.75       3.56      14.47
C       8.29       1.48      14.97
C       6.88       1.64      15.59
C       9.51       3.63      13.01
C      10.38       2.63      12.21
C       0.26      13.36      28.95
C       0.59      12.06      28.50
C       1.17      11.11      29.39
C       1.42      11.43      30.75
C       1.00      12.70      31.20
C       0.45      13.65      30.32
C       1.20       9.47      27.61
C       0.64      10.43      26.72
C       1.53       8.06      27.28
C       0.66       7.05      28.07
C       0.31      10.20      25.29
C       1.56      10.26      24.38
C      -0.57       9.21       5.17
C      -1.87       9.57       4.72
C      -2.98       9.54       5.61
C      -2.82       9.16       6.97
C      -1.51       8.89       7.42
C      -0.41       8.89       6.54
C      -4.41      10.34       3.83
C      -3.30      10.34       2.94
C      -5.80      10.75       3.50
C      -6.23      12.01       4.29
C      -3.34      10.74       1.51
C      -3.90       9.63       0.60
C      -3.75      12.00      17.06
C      -2.79      12.94      16.61
C      -2.26      13.92      17.50
C      -2.67      13.97      18.86
C      -3.56      12.97      19.31
C      -4.10      12.02      18.43
C      -0.85      14.75      15.72
C      -1.41      13.79      14.83
C       0.20      15.75      15.39
C       1.51      15.50      16.18
C      -1.04      13.63      13.40
C      -1.72      14.67      12.49
H       2.95       8.56       4.49
H       4.57       7.77      31.23
H       1.30       9.98      33.90
H       0.82      10.07       0.49
H       6.76       6.35      35.23
H       6.41       6.66       1.82
H       5.02       7.95       5.11
H       6.53       5.50      33.22
H       2.99       9.22      30.63
H       0.12       9.46       2.45
H      14.93       9.27      16.38
H      13.44       8.27       7.45
H      -4.02       9.99      10.12
H      -3.70      10.36      12.38
H      11.12       7.08      11.45
H      11.55       7.22      13.71
H      13.37       7.78      17.00
H      10.49       7.70       9.44
H      15.48       8.90       6.85
H      -3.88      11.27      14.34
H      -0.95      16.73      28.27
H       9.44       0.34      19.34
H      -1.35      14.59      22.01
H      -1.19      14.13      24.27
H       9.56       2.94      23.34
H       9.47       2.49      25.60
H       9.05       0.64      28.89
H      10.42       3.17      21.33
H      -1.54      16.44      18.73
H      -0.31      13.83      26.23
H       8.31       2.05      30.50
H       7.39       3.66      31.97
H       5.10       8.29      27.21
H       6.12       8.34      25.78
H       6.95       9.29      28.57
H       6.58      10.30      27.16
H       8.02       9.25      27.15
H       8.13       5.35      24.53
H       7.77       7.06      24.68
H       5.29       6.50      24.41
H       5.73       4.79      24.26
H       6.27       5.95      23.04
H       6.61       7.88       6.72
H       8.47       7.88       8.20
H      13.62       7.55       3.43
H      13.15       6.64       2.01
H      13.56       5.45       4.79
H      14.62       5.26       3.38
H      13.00       4.54       3.37
H       9.56       6.39       0.75
H      11.22       5.85       0.90
H      11.98       8.27       0.63
H      10.28       8.75       0.48
H      11.02       7.70      34.93
H      12.52       6.44      18.61
H      11.58       4.83      20.08
H       8.72       0.54      15.32
H       8.17       1.40      13.89
H       6.93       1.64      16.68
H       6.24       0.82      15.27
H       6.43       2.58      15.26
H       9.75       4.63      12.64
H       8.45       3.46      12.79
H      10.17       1.60      12.52
H      11.44       2.83      12.37
H      10.16       2.72      11.15
H       0.21      14.58      30.68
H       1.16      12.98      32.18
H       2.58       7.89      27.53
H       1.42       7.85      26.22
H       0.81       7.16      29.14
H       0.93       6.03      27.78
H      -0.39       7.21      27.84
H      -0.39      10.96      24.94
H      -0.19       9.23      25.17
H       2.30       9.51      24.66
H       2.02      11.25      24.44
H       1.27      10.08      23.34
H       0.51       8.63       6.90
H      -1.35       8.61       8.40
H      14.53       9.93       3.75
H      -5.92      10.96       2.44
H      -6.21      11.83       5.36
H      13.76      12.29       4.00
H      -5.57      12.85       4.06
H      -2.32      10.97       1.16
H      -3.92      11.66       1.39
H      -4.92       9.37       0.88
H      -3.28       8.73       0.66
H      -3.91       9.97      35.23
H      -4.79      11.35      18.79
H      -3.88      12.97      20.29
H      -0.18      16.75      15.64
H       0.44      15.76      14.33
H       1.34      15.58      17.25
H       2.25      16.24      15.89
H       1.90      14.51      15.95
H      -1.35      12.63      13.05
H       0.05      13.67      13.28
H      -1.44      15.69      12.77
H      -2.81      14.58      12.55
H      -1.42      14.51      11.45
N       6.56       6.52      28.56
N       7.63       4.71      26.90
N       8.49       2.24      27.80
N       6.30       6.02      31.27
N      11.36       7.17       4.78
N       9.26       7.14       3.12
N       6.69       7.64       4.02
N      11.06       7.64       7.49
N       9.52       2.69      16.67
N      10.55       4.52      15.01
N      12.26       6.49      15.91
N      10.08       2.71      19.38
N       1.43       9.87      28.88
N       0.37      11.66      27.22
N      -0.21      14.37      28.18
N       2.05      10.65      31.67
N      -4.17       9.94       5.11
N      -2.10       9.96       3.45
N       0.54       9.10       4.40
N      -3.81       9.01       7.89
N      -1.32      14.75      16.99
N      -2.34      12.94      15.33
N      -4.40      11.09      16.29
N      -2.31      14.91      19.78
