10

C       4.44       8.33       5.36
C       5.57       9.04       5.25
O       5.71       6.45       5.22
O       3.47       6.22       5.45
O       6.54      11.15       5.16
O       4.30      10.93       5.39
H       3.45       8.77       5.46
H       6.56       8.60       5.14
C       4.53       6.93       5.34
C       5.48      10.44       5.27
