32

H       2.43       3.25       1.40
H       8.47       1.76       1.98
H       7.96       2.19       0.32
H       5.94       1.49       2.57
H       5.65       1.55       0.79
H       7.26      -0.37       0.50
H       5.83      -0.78       1.52
H       7.42      -0.47       2.30
H       8.85       5.24       0.57
H       8.16       6.45      -1.46
H       5.91       6.15      -2.36
H       2.13       3.36      -0.99
C       3.89       4.29      -2.76
C       6.93       4.33       0.90
C       7.84       5.14       0.21
C       7.46       5.81      -0.94
C       6.18       5.62      -1.45
C       5.25       4.79      -0.77
C       7.63       2.20       1.39
C       6.40       1.31       1.57
C       6.75      -0.17       1.47
C       5.56       4.35       0.51
C       4.46       3.98       1.34
C       3.24       3.61       0.79
C       3.06       3.72      -0.56
C       4.04       4.35      -1.34
C       4.49       4.22       2.76
O       5.64       4.47       3.25
O       3.40       4.25       3.48
O       4.96       4.31      -3.48
O       2.71       4.08      -3.25
O       7.41       3.50       1.90
