656

C      16.10       2.85       7.89
C      16.68       1.83       8.68
C      17.74       1.07       8.17
C      18.25       1.27       6.86
C      17.75       2.40       6.15
C      16.68       3.16       6.65
C      19.37       0.41       6.29
C       1.10       1.18       6.80
C       1.63       2.28       6.08
C       2.67       3.08       6.60
C       3.18       2.83       7.89
C       2.64       1.77       8.64
C       1.60       0.99       8.12
C      19.32      32.36       6.74
C      19.33       0.21       4.78
C       1.04      33.32       4.04
C       1.00      32.98       2.68
C      19.25      32.90       2.00
C      18.07      33.16       2.71
C      18.10       0.08       4.07
C      18.07      31.68       6.84
C      17.99      30.35       7.29
C      19.16      29.63       7.62
C       0.92      30.24       7.37
C       1.00      31.57       6.92
C      16.07      28.52      35.00
C      16.72      29.41      34.13
C      17.82      30.15      34.57
C      18.31      30.05      35.90
C      17.72      29.04      36.71
C      16.61      28.31      36.28
C       0.01      30.90      36.36
C       1.16      30.09      35.76
C       1.62      28.91      36.41
C       2.62      28.10      35.85
C       3.18      28.42      34.60
C       2.70      29.56      33.92
C       1.69      30.35      34.47
C      19.39      32.35      35.89
C       0.13      31.12      37.87
C       1.39      31.29      38.50
C       1.50      31.63      39.86
C       0.35      31.86      40.64
C      18.57      31.74      40.02
C      18.47      31.40      38.66
C      18.14      33.01      35.78
C      18.02       0.93      35.34
C      19.18       1.67      35.01
C       0.95       1.09      35.26
C       1.06      33.17      35.72
C      13.02      11.81      28.65
C      12.37      12.71      29.52
C      11.27      13.45      29.07
C      10.78      13.35      27.74
C      11.37      12.34      26.93
C      12.48      11.60      27.36
C       9.60      14.20      27.28
C       8.45      13.39      27.88
C       7.99      12.21      27.23
C       6.98      11.40      27.78
C       6.43      11.72      29.04
C       6.90      12.85      29.73
C       7.92      13.65      29.17
C       9.70      15.65      27.75
C       9.48      14.42      25.77
C       8.21      14.59      25.14
C       8.10      14.94      23.78
C       9.25      15.16      23.00
C      10.52      15.04      23.62
C      10.62      14.69      24.98
C      10.96      16.31      27.85
C      11.07      17.64      28.30
C       9.91      18.38      28.62
C       8.65      17.79      28.38
C       8.55      16.47      27.93
C      13.00      19.55      13.79
C      12.42      18.53      13.01
C      11.35      17.77      13.52
C      10.85      17.97      14.83
C      11.34      19.11      15.53
C      12.42      19.87      15.03
C       9.72      17.11      15.40
C       8.51      17.89      14.89
C       7.98      18.99      15.61
C       6.94      19.79      15.09
C       6.43      19.54      13.80
C       6.97      18.48      13.05
C       8.01      17.70      13.57
C       9.79      15.65      14.95
C       9.76      16.92      16.91
C       8.58      16.61      17.64
C       8.62      16.28      19.01
C       9.85      16.20      19.69
C      11.04      16.46      18.98
C      10.99      16.79      17.61
C      11.03      14.97      14.85
C      11.11      13.64      14.40
C       9.94      12.93      14.07
C       8.69      13.53      14.31
C       8.62      14.86      14.77
C       1.36      22.73      11.88
C      18.46      22.32      12.15
C      19.21      24.26      10.89
C      17.60      21.52      11.37
C      16.51      20.86      11.96
C      16.26      20.98      13.35
C      17.14      21.77      14.13
C      18.22      22.44      13.53
C       2.00      21.63      11.28
C       3.27      21.23      11.72
C       3.93      21.92      12.77
C       3.30      23.06      13.32
C       2.03      23.46      12.88
C      19.37      24.38       9.50
C      19.05      25.59       8.85
C      18.57      26.69       9.59
C      18.40      26.56      10.99
C      18.73      25.36      11.63
C      18.30      27.90       8.99
C       5.12      21.46      13.31
C      15.19      20.34      13.95
C       1.30       8.58      30.84
C      18.41       8.98      30.46
C      19.12       7.06      31.78
C      17.52       9.79      31.19
C      16.46      10.45      30.54
C      16.26      10.30      29.15
C      17.17       9.50      28.42
C      18.23       8.84      29.07
C       1.92       9.68      31.46
C       3.22      10.06      31.09
C       3.93       9.35      30.09
C       3.31       8.22      29.51
C       2.01       7.83      29.88
C      19.27       6.94      33.17
C      18.98       5.73      33.82
C      18.52       4.61      33.07
C      18.36       4.74      31.68
C      18.66       5.95      31.03
C      18.28       3.40      33.67
C       5.14       9.80      29.59
C      15.21      10.92      28.49
C       8.31      25.28      32.80
C      10.68      25.68      33.18
C       9.97      23.77      31.86
C      11.57      26.50      32.45
C      12.63      27.15      33.10
C      12.83      27.00      34.49
C      11.92      26.20      35.22
C      10.86      25.54      34.57
C       7.69      26.38      32.18
C       6.38      26.76      32.55
C       5.68      26.05      33.55
C       6.29      24.92      34.13
C       7.59      24.53      33.76
C       9.82      23.65      30.46
C      10.12      22.44      29.81
C      10.57      21.33      30.55
C      10.74      21.45      31.95
C      10.43      22.66      32.60
C      10.83      20.11      29.94
C       4.46      26.50      34.04
C      13.88      27.62      35.15
C       8.25       6.03       9.80
C      10.64       5.62       9.54
C       9.88       7.56      10.79
C      11.50       4.82      10.32
C      12.58       4.16       9.72
C      12.84       4.28       8.34
C      11.96       5.07       7.55
C      10.87       5.73       8.15
C       7.61       4.93      10.40
C       6.33       4.53       9.97
C       5.67       5.22       8.92
C       6.31       6.36       8.36
C       7.58       6.76       8.80
C       9.73       7.68      12.19
C      10.04       8.88      12.84
C      10.52       9.99      12.10
C      10.69       9.86      10.70
C      10.37       8.66      10.05
C      10.80      11.20      12.70
C       4.48       4.76       8.38
C      13.90       3.65       7.73
C       4.61       2.85      16.89
C       5.19       1.83      17.68
C       6.25       1.07      17.17
C       6.76       1.27      15.86
C       6.26       2.40      15.15
C       5.19       3.16      15.65
C       7.88       0.41      15.29
C       9.09       1.18      15.80
C       9.63       2.28      15.08
C      10.67       3.08      15.60
C      11.18       2.83      16.89
C      10.64       1.77      17.64
C       9.59       0.99      17.12
C       7.83      32.36      15.74
C       7.85       0.21      13.78
C       9.04      33.32      13.04
C       9.00      32.98      11.68
C       7.76      32.90      11.00
C       6.58      33.16      11.71
C       6.62       0.08      13.07
C       6.58      31.68      15.84
C       6.50      30.35      16.29
C       7.67      29.63      16.62
C       8.92      30.24      16.37
C       8.99      31.57      15.92
C       4.59      28.52       2.04
C       5.24      29.41       1.17
C       6.34      30.15       1.62
C       6.83      30.05       2.95
C       6.24      29.04       3.76
C       5.13      28.31       3.33
C       8.01      30.90       3.41
C       9.16      30.09       2.81
C       9.62      28.91       3.46
C      10.63      28.10       2.90
C      11.18      28.42       1.64
C      10.71      29.56       0.96
C       9.69      30.35       1.52
C       7.91      32.35       2.94
C       8.14      31.12       4.92
C       9.40      31.29       5.55
C       9.51      31.63       6.91
C       8.36      31.86       7.68
C       7.09      31.74       7.07
C       6.99      31.40       5.71
C       6.66      33.01       2.83
C       6.54       0.93       2.38
C       7.70       1.67       2.06
C       8.96       1.09       2.31
C       9.06      33.17       2.77
C       1.53      11.81      37.65
C       0.89      12.71      38.52
C      19.27      13.45      38.07
C      18.78      13.35      36.74
C      19.36      12.34      35.93
C       0.99      11.60      36.36
C      17.60      14.20      36.28
C      16.45      13.39      36.88
C      15.98      12.21      36.23
C      14.98      11.40      36.78
C      14.43      11.72      38.04
C      14.90      12.85      38.73
C      15.92      13.65      38.17
C      17.70      15.65      36.75
C      17.47      14.42      34.77
C      16.21      14.59      34.14
C      16.10      14.94      32.78
C      17.25      15.16      32.00
C      18.52      15.04      32.62
C      18.62      14.69      33.98
C      18.96      16.31      36.85
C      19.06      17.64      37.30
C      17.91      18.38      37.62
C      16.65      17.79      37.38
C      16.55      16.47      36.93
C       1.51      19.55      22.79
C       0.93      18.53      22.01
C      19.35      17.77      22.52
C      18.85      17.97      23.83
C      19.34      19.11      24.53
C       0.93      19.87      24.03
C      17.72      17.11      24.40
C      16.51      17.89      23.89
C      15.98      18.99      24.61
C      14.94      19.79      24.09
C      14.43      19.54      22.80
C      14.96      18.48      22.05
C      16.01      17.70      22.57
C      17.78      15.65      23.95
C      17.76      16.92      25.91
C      16.58      16.61      26.64
C      16.62      16.28      28.01
C      17.85      16.20      28.69
C      19.03      16.46      27.98
C      18.99      16.79      26.61
C      19.03      14.97      23.85
C      19.11      13.64      23.40
C      17.93      12.93      23.07
C      16.69      13.53      23.31
C      16.62      14.86      23.77
C       9.36      22.73      20.88
C       6.97      22.32      21.15
C       7.72      24.26      19.89
C       6.11      21.52      20.37
C       5.02      20.86      20.96
C       4.77      20.98      22.35
C       5.65      21.77      23.13
C       6.74      22.44      22.53
C      10.00      21.63      20.28
C      11.27      21.23      20.72
C      11.93      21.92      21.77
C      11.30      23.06      22.32
C      10.03      23.46      21.88
C       7.88      24.38      18.50
C       7.57      25.59      17.85
C       7.08      26.69      18.59
C       6.91      26.56      19.99
C       7.24      25.36      20.63
C       6.81      27.90      17.99
C      13.12      21.46      22.31
C       3.71      20.34      22.95
C       9.29       8.58      39.84
C       6.92       8.98      39.46
C       7.63       7.06      40.78
C       6.04       9.79      40.19
C       4.97      10.45      39.54
C       4.77      10.30      38.15
C       5.68       9.50      37.42
C       6.74       8.84      38.07
C       9.92       9.68      40.46
C      11.22      10.06      40.09
C      11.93       9.35      39.09
C      11.31       8.22      38.51
C      10.01       7.83      38.88
C       7.79       6.94       0.22
C       7.50       5.73       0.87
C       7.04       4.61       0.12
C       6.87       4.74      40.68
C       7.18       5.95      40.03
C       6.80       3.40       0.72
C      13.14       9.80      38.59
C       3.72      10.92      37.49
C      16.31      25.28      41.80
C      18.69      25.68       0.23
C      17.97      23.77      40.86
C       0.08      26.50      41.45
C       1.15      27.15       0.15
C       1.35      27.00       1.54
C       0.44      26.20       2.27
C      18.87      25.54       1.62
C      15.69      26.38      41.18
C      14.38      26.76      41.55
C      13.68      26.05       0.60
C      14.30      24.92       1.18
C      15.60      24.53       0.81
C      17.82      23.65      39.46
C      18.12      22.44      38.81
C      18.57      21.33      39.55
C      18.74      21.45      40.95
C      18.43      22.66      41.60
C      18.82      20.11      38.94
C      12.47      26.50       1.09
C       2.40      27.62       2.20
C      16.25       6.03      18.80
C      18.63       5.62      18.54
C      17.88       7.56      19.79
C       0.01       4.82      19.32
C       1.10       4.16      18.72
C       1.35       4.28      17.34
C       0.47       5.07      16.55
C      18.87       5.73      17.15
C      15.61       4.93      19.40
C      14.33       4.53      18.97
C      13.67       5.22      17.92
C      14.30       6.36      17.36
C      15.58       6.76      17.80
C      17.73       7.68      21.19
C      18.04       8.88      21.84
C      18.52       9.99      21.10
C      18.69       9.86      19.70
C      18.37       8.66      19.05
C      18.79      11.20      21.70
C      12.48       4.76      17.38
C       2.42       3.65      16.73
H       1.87      32.76       2.20
H       1.95      33.31       4.51
H      17.16      33.07       2.25
H      17.21       0.20       4.56
H      17.20      32.16       6.64
H      17.07      29.92       7.42
H       1.79      29.73       7.57
H       1.92      31.97       6.77
H       1.20       0.27       8.73
H       2.99       1.58       9.58
H       3.05       3.84       6.03
H       1.26       2.53       5.15
H      18.14       2.66       5.24
H      18.12       0.33       8.77
H      16.29       1.61       9.60
H      16.30       3.93       6.08
H       2.43      31.75      40.27
H       2.26      31.19      37.97
H      17.72      31.93      40.55
H      17.54      31.38      38.25
H      17.27      32.52      36.00
H      17.09       1.34      35.22
H       1.81       1.61      35.07
H       1.99      32.78      35.87
H       1.34      31.13      33.91
H       3.09      29.80      33.00
H       2.96      27.29      36.38
H       1.23      28.63      37.32
H      18.09      28.85      37.65
H      18.25      30.81      33.91
H      16.36      29.56      33.18
H      16.19      27.62      36.91
H       7.17      15.06      23.37
H       7.35      14.50      25.68
H      11.38      15.22      23.09
H      11.56      14.67      25.39
H      11.83      15.82      27.64
H      12.00      18.05      28.41
H       7.79      18.32      28.58
H       7.62      16.08      27.78
H       8.27      14.43      29.73
H       6.52      13.10      30.65
H       6.64      10.60      27.26
H       8.37      11.94      26.32
H      11.00      12.14      26.00
H      10.84      14.11      29.73
H      12.73      12.86      30.47
H      12.90      10.91      26.73
H       7.74      16.06      19.49
H       7.67      16.61      17.18
H      11.95      16.37      19.44
H      11.88      16.90      17.13
H      11.91      15.45      15.05
H      12.03      13.21      14.28
H       7.82      13.03      14.12
H       7.69      15.26      14.92
H       8.41      16.98      12.96
H       6.62      18.28      12.11
H       6.56      20.55      15.66
H       8.34      19.23      16.53
H      10.96      19.36      16.44
H      10.98      17.03      12.92
H      12.81      18.30      12.09
H      12.79      20.63      15.60
H      17.76      21.43      10.36
H      16.99      21.88      15.13
H      18.83      23.02      14.11
H      15.91      20.29      11.36
H       1.57      24.25      13.34
H       1.52      21.09      10.56
H       3.70      20.40      11.29
H       3.74      23.57      14.09
H       0.22      23.59       8.95
H      18.06      27.35      11.55
H      18.61      25.29      12.64
H      19.18      25.65       7.83
H      17.51      28.43       9.30
H       5.72      22.10      13.79
H      15.30      20.03      14.89
H      17.64       9.90      32.20
H      17.05       9.36      27.41
H      18.85       8.25      28.52
H      15.83      11.03      31.10
H       1.57       7.04      29.41
H       1.41      10.23      32.15
H       3.63      10.89      31.53
H       3.78       7.69      28.76
H       0.11       7.74      33.72
H      18.04       3.95      31.11
H      18.56       6.02      30.02
H      19.10       5.66      34.83
H      17.49       2.87      33.37
H       5.77       9.15      29.17
H      15.32      11.17      27.53
H      11.45      26.61      31.44
H      12.04      26.06      36.23
H      10.24      24.95      35.12
H      13.26      27.74      32.54
H       8.03      23.74      34.23
H       8.20      26.94      31.49
H       5.98      27.59      32.11
H       5.82      24.39      34.87
H       9.49      24.45      29.91
H      11.05      20.66      32.51
H      10.54      22.72      33.61
H      10.00      22.38      28.80
H      11.62      19.59      30.24
H       3.84      25.85      34.47
H      13.77      27.86      36.11
H      11.34       4.73      11.32
H      12.11       5.18       6.55
H      10.27       6.32       7.57
H      13.19       3.59      10.32
H       8.04       7.55       8.34
H       8.09       4.39      11.12
H       5.91       3.70      10.40
H       5.87       6.87       7.59
H       9.38       6.88      12.74
H      11.03      10.64      10.14
H      10.49       8.59       9.04
H       9.91       8.95      13.85
H      11.58      11.72      12.39
H       3.89       5.39       7.89
H      13.80       3.33       6.79
H       9.87      32.76      11.19
H       9.95      33.31      13.51
H       5.67      33.07      11.25
H       5.73       0.20      13.56
H       5.71      32.16      15.64
H       5.58      29.92      16.42
H       9.79      29.73      16.57
H       9.92      31.97      15.77
H       9.20       0.27      17.73
H      10.99       1.58      18.58
H      11.04       3.84      15.03
H       9.26       2.53      14.15
H       6.65       2.66      14.24
H       6.63       0.33      17.77
H       4.80       1.61      18.60
H       4.82       3.93      15.08
H      10.44      31.75       7.32
H      10.26      31.19       5.01
H       6.24      31.93       7.60
H       6.06      31.38       5.30
H       5.79      32.52       3.04
H       5.61       1.34       2.27
H       9.82       1.61       2.12
H      10.00      32.78       2.92
H       9.34      31.13       0.96
H      11.09      29.80       0.04
H      10.97      27.29       3.43
H       9.24      28.63       4.36
H       6.61      28.85       4.70
H       6.77      30.81       0.96
H       4.88      29.56       0.22
H       4.71      27.62       3.96
H      15.17      15.06      32.37
H      15.35      14.50      34.68
H      19.37      15.22      32.09
H       0.07      14.67      34.39
H       0.34      15.82      36.64
H       0.51      18.05      37.41
H      15.79      18.32      37.58
H      15.62      16.08      36.78
H      16.27      14.43      38.73
H      14.52      13.10      39.65
H      14.64      10.60      36.26
H      16.37      11.94      35.32
H      19.00      12.14      35.00
H      18.84      14.11      38.73
H       1.24      12.86      39.47
H       1.41      10.91      35.73
H      15.74      16.06      28.49
H      15.67      16.61      26.18
H       0.46      16.37      28.44
H       0.39      16.90      26.13
H       0.42      15.45      24.05
H       0.54      13.21      23.28
H      15.82      13.03      23.12
H      15.69      15.26      23.92
H      16.41      16.98      21.96
H      14.62      18.28      21.11
H      14.56      20.55      24.66
H      16.34      19.23      25.53
H      18.96      19.36      25.44
H      18.98      17.03      21.92
H       1.32      18.30      21.09
H       1.30      20.63      24.60
H       6.27      21.43      19.36
H       5.50      21.88      24.13
H       7.34      23.02      23.11
H       4.42      20.29      20.36
H       9.57      24.25      22.34
H       9.52      21.09      19.56
H      11.70      20.40      20.29
H      11.74      23.57      23.09
H       8.22      23.59      17.95
H       6.58      27.35      20.55
H       7.12      25.29      21.64
H       7.69      25.65      16.83
H       6.02      28.43      18.30
H      13.72      22.10      22.79
H       3.81      20.03      23.89
H       6.15       9.90      41.20
H       5.56       9.36      36.41
H       7.37       8.25      37.52
H       4.35      11.03      40.10
H       9.57       7.04      38.41
H       9.41      10.23      41.15
H      11.63      10.89      40.53
H      11.78       7.69      37.76
H       8.12       7.74       0.77
H       6.56       3.95      40.11
H       7.07       6.02      39.02
H       7.62       5.66       1.88
H       6.01       2.87       0.42
H      13.76       9.15      38.17
H       3.83      11.17      36.53
H      19.45      26.61      40.44
H       0.56      26.06       3.28
H      18.24      24.95       2.16
H       1.77      27.74      41.54
H      16.04      23.74       1.27
H      16.19      26.94      40.49
H      13.98      27.59      41.11
H      13.83      24.39       1.92
H      17.49      24.45      38.91
H      19.05      20.66      41.51
H      18.54      22.72       0.66
H      17.99      22.38      37.80
H       0.13      19.59      39.24
H      11.84      25.85       1.52
H       2.29      27.86       3.16
H      19.34       4.73      20.32
H       0.62       5.18      15.55
H      18.26       6.32      16.57
H       1.70       3.59      19.32
H      16.04       7.55      17.34
H      16.09       4.39      20.12
H      13.91       3.70      19.40
H      13.87       6.87      16.59
H      17.38       6.88      21.74
H      19.03      10.64      19.14
H      18.49       8.59      18.04
H      17.91       8.95      22.85
H       0.10      11.72      21.39
H      11.89       5.39      16.89
H       2.31       3.33      15.79
N      19.13      32.54       0.73
N      19.16      28.44       8.19
N      15.01       3.45       8.35
N       4.19       3.51       8.40
N       0.52      32.22      41.90
N      19.16       2.87      34.45
N      14.98      27.91      34.55
N       4.20      27.76      34.08
N       9.09      15.52      21.74
N       9.94      19.58      29.19
N      14.11      11.21      29.10
N       5.41      11.06      29.56
N       9.97      15.84      20.96
N       9.94      11.73      13.50
N      14.08      20.15      13.33
N       5.41      20.21      13.29
N       0.02      23.03      11.51
N      19.43       8.29      31.15
N       9.66      24.99      32.49
N       9.58       6.33      10.17
N       7.64      32.54       9.73
N       7.67      28.44      17.19
N       3.52       3.45      17.35
N      12.19       3.51      17.40
N       8.53      32.22       8.95
N       7.68       2.87       1.49
N       3.50      27.91       1.59
N      12.20      27.76       1.12
N      17.09      15.52      30.74
N      17.94      19.58      38.19
N       2.62      11.21      38.10
N      13.41      11.06      38.56
N      17.97      15.84      29.96
N      17.94      11.73      22.50
N       2.60      20.15      22.33
N      13.41      20.21      22.29
N       8.02      23.03      20.51
N       7.95       8.29      40.15
N      17.65      24.99      41.49
N      17.58       6.33      19.17
