44

O       3.97       6.22       7.46
O       5.35       6.81       9.15
O       5.24       4.38      12.94
O       8.31       1.18       0.28
H       7.49       0.67       9.28
H       6.77       5.08       4.13
H       7.79       0.50       2.63
H       5.42       4.95      10.54
H       7.77       0.24       7.34
H       5.57       5.10       5.80
H       9.73      -1.56       3.86
H       4.71       7.59       9.26
H       6.69       3.12      13.41
H       7.07       2.64      -0.18
C       7.28       5.06       1.59
C       6.72       0.64      11.73
C       7.23       3.86       2.46
C       6.69       1.83      10.84
C       7.62       1.51       2.98
C       5.87       4.02      10.22
C       7.48       2.53       2.03
C       6.20       3.10      11.22
C       6.96       4.07       3.82
C       7.02       1.61       9.50
C       7.02       3.03       4.77
C       6.72       2.54       8.48
C       7.48       1.76       4.35
C       6.10       3.77       8.86
C       6.67       3.25       6.13
C       6.98       2.27       7.10
C       7.52       1.04       6.66
C       5.97       4.40       6.53
C       7.76       0.77       5.31
C       5.70       4.68       7.87
C       8.39      -0.54       4.97
C       4.94       5.93       8.15
C       6.05       3.53      12.63
C       7.61       2.13       0.60
O       7.31       4.89       0.29
O       6.70       0.81      13.03
O       7.31       6.26       2.13
O       6.71      -0.56      11.19
O       8.07      -1.55       5.58
O       9.39      -0.61       3.99
