12

Zn       4.28       0.78      37.00
C       2.38       2.07      34.97
C       1.55       2.04      36.99
C       3.35       0.42      39.58
N       5.91       1.86      36.52
N       2.63       1.66      36.21
N       4.49      -1.07      36.25
C       5.41      -1.39      35.34
C       3.74      -2.21      36.50
O       4.25       1.12      38.93
C       6.38       2.37      35.37
C       6.67       2.43      37.53
