12

N       7.22      11.27       9.50
Zn       8.85      12.35       9.98
N      10.49      11.46       9.19
N       8.64      14.19       9.23
C       6.75      10.75       8.35
C       6.46      10.70      10.51
C      10.75      11.06       7.94
C      11.57      11.08       9.96
C       9.38      15.33       9.48
C       7.72      14.52       8.31
O       8.87      12.01      11.91
C       9.77      12.70      12.56
