12

C      11.67      10.04      35.77
N      12.07      12.93      32.71
Zn      11.49      11.05      33.27
N       9.47      11.18      33.17
C       8.68      10.22      33.66
N      12.29       9.80      31.98
O      12.15      11.07      35.13
C       8.65      12.18      32.68
C      13.31       8.94      32.19
C      12.68      13.77      33.55
C      12.11       9.84      30.61
C      11.97      13.59      31.50
