12

Zn      11.05      11.49      20.77
C      10.22       8.68      20.38
C      12.18       8.65      21.36
C       8.94      13.31      21.86
C      13.77      12.68      20.49
C       9.84      12.11      23.44
C      13.59      11.97      22.55
N      11.18       9.47      20.87
N      12.93      12.07      21.33
C      10.04      11.67      18.28
N       9.80      12.29      22.07
O      11.07      12.15      18.91
