34

Ba       5.80       5.27       8.61
Ba      10.05       3.79       9.90
P       7.77       3.79       6.22
P       3.80       7.55      10.29
P       7.54       8.97       7.42
P       8.08       5.28      12.28
P       8.32       0.07      10.97
C       6.46       1.81       9.22
P       3.92       6.64       5.08
P       3.66       1.31       8.12
C       9.90       7.09       8.19
P      11.94       2.40      13.42
O       6.29       4.22       6.02
O       8.34       4.01       7.67
O       3.27       6.10       9.93
O      10.59       1.26       8.61
O       4.04       6.62       6.83
O       3.84       7.71      12.03
O       7.67       2.19       5.50
O       5.26       7.81       9.89
O       7.45       7.23       7.49
O       9.55       4.84      12.49
O       7.51       5.06      10.84
O      11.80       2.45      11.68
O       8.06       6.96      12.75
O       4.15       2.97       8.58
O       8.39       1.83      11.02
H       6.18       2.23       8.24
H       6.16       2.48      10.05
H      10.73       6.43       8.08
H       9.20       6.62       8.91
C       7.19       4.24      13.57
C       8.70       4.76       4.86
C       2.83       8.90       9.35
