114

Zr       7.40       6.30       4.58
Zr       7.39       2.22       7.47
Zr      -5.57       5.27       7.47
Zr       5.63       3.24       4.57
Zr       9.16       3.23       4.58
Zr       5.63       5.27       7.46
H      -3.02       8.84       7.63
H       3.54       4.08       0.81
H       2.88      -0.22       4.67
H      -3.35       4.42      11.14
H      -1.23       2.79       4.39
H      -9.46       8.09      10.85
H       1.28       5.22       7.94
H       9.54       0.78       0.94
H       9.11       7.72       0.85
H       9.29      -1.69       7.70
H       5.36       0.58      10.95
H      -8.90      10.40       4.69
H      -2.81      -0.20       4.68
H       3.03       4.19      10.86
H       3.18       8.90       7.72
H      11.43       4.11       0.92
H      -1.24       5.22       7.93
H       5.25       1.02       0.85
H       1.29       2.78       4.40
H      -5.17       7.86      10.94
H      -5.04       0.49      10.82
H      -5.69      10.37       4.64
H       5.24       8.01       1.13
H       5.56      -1.75       7.64
H      -4.55       5.85       4.89
H       4.61       5.85       4.89
H      -7.38       4.26       9.43
H       7.39       1.05       4.87
C      -3.33       9.67       6.99
C       3.63       5.09       0.42
C       3.18      -1.04       5.31
C      -3.44       3.41      11.53
C      -0.67       3.31       5.16
C      -8.52       8.35      11.33
C       0.72       4.69       7.17
C       8.60       0.51       0.46
C       9.90       7.11       0.40
C      -4.59      -1.86       7.06
C       4.57       1.19      11.39
C      -9.75      10.57       5.34
C      -3.10      -1.01       5.34
C       3.25       3.24      11.34
C     -11.25       9.72       7.06
C      11.21       5.07       0.45
C      -0.67       4.69       7.17
C       6.17       0.64       0.40
C       0.72       3.31       5.17
C      -6.10       8.22      11.38
C      -4.40       1.19      11.35
C      -4.84      10.53       5.29
C       4.59       7.31       0.60
C       4.70      -1.91       7.00
C      -5.13       8.17       6.08
C      -4.42       9.48       6.13
C       5.19       5.57       2.32
C       4.46       6.00       1.09
C       5.09       0.40       6.09
C       4.30      -0.87       6.14
C      -5.04       2.94       9.66
C      -4.27       2.50      10.87
C      -2.86       4.11       6.09
C      -1.37       4.02       6.15
C      -7.34       6.95       9.61
C      -7.32       7.87      10.79
C       2.91       4.12       6.09
C       1.42       4.02       6.16
C       7.40       1.74       2.29
C       7.39       0.96       1.02
C       9.54       5.49       2.28
C      10.22       5.89       1.01
C      -5.01       0.42       6.11
C      -4.21      -0.83       6.18
C       5.06       2.91       9.63
C       4.27       2.43      10.80
C      -9.50       8.19       6.12
C     -10.17       9.52       6.19
O      -5.35       5.39       5.21
O       5.41       5.40       5.21
O       7.39       1.96       5.21
O      -7.36       4.26       8.46
O      -5.88       3.40       6.62
O       5.92       3.40       6.62
O      -7.34       5.94       6.62
O       7.40       4.26       4.21
O      -5.97       7.98       5.14
O       6.02       6.40       2.83
O       5.99       0.56       6.99
O      -5.90       2.12       9.18
O      -3.44       4.81       6.99
O      -6.20       6.58       9.15
O       3.49       3.52       5.13
O       6.26       2.06       2.79
O       9.86       4.35       2.78
O      -4.77       1.22       5.15
O       4.81       4.08       9.18
O      -9.84       7.32       6.99
O      -5.92       0.58       7.01
O       5.96       2.12       9.17
O      -8.65       8.01       5.18
O       8.72       6.32       2.79
O      -3.44       3.52       5.12
O       8.54       2.02       2.80
O       3.48       4.84       6.98
O      -8.48       6.58       9.16
O      -4.78       4.10       9.19
O      -4.82       7.31       6.98
O       4.91       4.41       2.79
O       4.83       1.21       5.13
