49

O      -1.59      10.11      23.24
O      -0.16       9.49      24.80
O      11.61      10.58      23.89
O      12.62      11.57      22.10
O       5.52      17.94      14.03
O       3.67      16.87      13.42
C       4.00      12.52      20.84
C       5.29      12.26      21.31
C       6.43      12.84      20.73
C       6.25      13.67      19.62
C       4.98      13.93      19.10
C       3.85      13.36      19.72
C       2.84      11.93      21.55
C       1.58      11.77      20.94
C       0.52      11.19      21.63
C       0.70      10.75      22.96
C       1.94      10.94      23.58
C       2.99      11.52      22.89
C      -0.39      10.09      23.70
C       7.76      12.51      21.27
C       7.91      12.16      22.63
C       9.14      11.75      23.13
C      10.26      11.72      22.29
C      10.14      12.11      20.95
C       8.90      12.49      20.44
C      11.55      11.25      22.83
C       4.83      14.77      17.89
C       5.70      15.85      17.67
C       5.63      16.59      16.50
C       4.68      16.28      15.52
C       3.78      15.22      15.74
C       3.86      14.47      16.92
C       4.62      17.06      14.27
H      13.43      11.08      22.49
H       5.43      11.54      22.12
H       7.12      14.12      19.14
H       2.86      13.62      19.36
H       1.45      12.07      19.90
H      -0.43      11.04      21.14
H       2.06      10.65      24.63
H       3.93      11.66      23.40
H       7.06      12.24      23.30
H       9.24      11.46      24.17
H      11.01      12.08      20.30
H       8.81      12.73      19.38
H       6.43      16.12      18.43
H       6.31      17.43      16.34
H       3.04      14.98      14.98
H       3.19      13.63      17.06
