28

H      10.03       0.45       0.29
H       8.34       1.62       1.76
C      11.41      -1.76       0.85
C      10.54      -1.00       1.79
H       9.19      -1.14       4.93
H      10.85      -2.32       3.48
C       9.84       0.12       1.31
C       8.91       0.77       2.12
H      12.86      -6.17       1.04
C       8.68       0.31       3.43
H      11.41      -4.34       0.13
C       9.39      -0.80       3.92
H      13.40      -1.53       2.74
C      10.32      -1.45       3.11
H      14.97      -3.33       3.48
C       7.66       0.98       4.30
O       7.00       1.94       3.80
C      12.99      -5.15       1.37
O       7.56       0.52       5.49
C      12.17      -4.13       0.89
C      12.31      -2.83       1.39
O      14.51      -7.14       2.60
C      13.30      -2.54       2.35
O      15.98      -5.58       3.36
C      14.18      -3.54       2.76
O      11.36      -1.56      -0.37
C      14.01      -4.85       2.28
C      14.90      -5.94       2.79
