28

H       4.04      11.47       8.10
H       5.71      10.31       6.60
C       4.49      12.60      10.47
C       5.46      11.78       9.68
H       8.73      10.80       9.61
H       7.09      11.97      11.09
C       5.07      11.30       8.41
C       5.99      10.66       7.59
H       5.27      15.71      13.84
C       7.31      10.48       8.03
H       4.68      15.07      11.49
C       7.70      10.94       9.29
H       5.01      10.90      12.57
C       6.78      11.59      10.12
H       5.39      11.56      14.96
C       8.32       9.82       7.14
O       7.94       9.47       5.98
C       5.17      14.66      13.55
O       9.48       9.65       7.64
C       4.87      14.31      12.24
C       4.82      12.95      11.88
O       6.04      15.25      16.14
C       5.04      11.96      12.85
O       5.48      13.16      16.83
C       5.25      12.32      14.18
O       3.46      13.04       9.96
C       5.34      13.67      14.53
C       5.64      14.05      15.94
