20

C       4.76       2.42       9.18
C       4.05       3.86      10.83
C       4.38       3.30       8.19
C       3.60       4.77       9.91
C       3.76       4.53       8.52
C       3.36       5.50       7.53
C       3.86       5.50       6.20
C       2.41       6.53       7.79
C       2.02       7.41       6.80
C       3.45       6.44       5.28
H       5.22       1.47       8.92
H       3.99       4.09      11.90
H       4.53       3.01       7.15
H       3.18       5.71      10.27
H       4.63       4.78       5.90
H       1.94       6.61       8.77
H       1.27       8.17       7.01
H       3.87       6.44       4.27
N       4.60       2.66      10.51
N       2.52       7.40       5.53
