20

C       4.13      11.85       1.29
C       2.53      12.10       2.93
C       3.17      11.86       0.29
C       1.52      12.17       2.00
C       1.80      12.03       0.61
C       0.75      12.01      -0.38
C       0.94      11.48      -1.69
C      -0.54      12.54      -0.14
C      -1.50      12.55      -1.13
C      -0.07      11.51      -2.62
H       5.18      11.74       1.03
H       2.30      12.13       3.99
H       3.50      11.76      -0.74
H       0.50      12.26       2.35
H       1.88      11.01      -1.96
H      -0.78      13.00       0.82
H      -2.48      13.00      -0.94
H       0.08      11.11      -3.62
N       3.85      11.99       2.61
N      -1.31      12.04      -2.39
