20

C       0.70      -4.81      14.55
C       2.30      -5.06      12.91
C       1.66      -4.82      15.55
C       3.31      -5.13      13.84
C       3.03      -4.99      15.23
C       4.08      -4.97      16.23
C       3.89      -4.44      17.53
C       5.37      -5.50      15.98
C       6.33      -5.51      16.97
C       4.90      -4.47      18.46
H      -0.35      -4.70      14.81
H       2.53      -5.10      11.85
H       1.33      -4.72      16.58
H       4.33      -5.22      13.49
H       2.94      -3.97      17.80
H       5.61      -5.96      15.02
H       7.30      -5.96      16.78
H       4.75      -4.07      19.46
N       0.98      -4.95      13.23
N       6.14      -5.01      18.23
