20

C       7.34       4.65       9.18
C       8.09       3.23      10.84
C       7.68       3.74       8.19
C       8.51       2.30       9.92
C       8.30       2.51       8.53
C       8.65       1.51       7.54
C       8.10       1.50       6.23
C       9.59       0.47       7.81
C       9.93      -0.43       6.82
C       8.49       0.55       5.31
H       6.87       5.59       8.91
H       8.19       3.04      11.90
H       7.49       4.00       7.16
H       8.94       1.37      10.28
H       7.34       2.22       5.94
H      10.09       0.41       8.77
H      10.68      -1.19       7.03
H       8.07       0.55       4.31
N       7.54       4.44      10.51
N       9.41      -0.43       5.56
