25

C       4.81       8.88       6.42
C       3.58       9.69       2.85
P       5.39       6.72       8.92
N       5.25       7.48       6.20
H       6.54       6.14       6.98
H       6.89       7.61       7.37
H       6.70       7.87       4.87
H       6.13       6.42       4.75
H       4.22       7.19       3.68
H       5.47       7.74       2.90
O       6.57       6.17       9.74
H       3.60      10.25       5.46
H       3.06       8.79       5.33
H       4.35       8.95       7.27
H       5.58       9.47       6.44
O       5.03       8.05       9.55
O       4.24       5.79       8.75
H       5.26       9.83       3.95
O       3.84       9.42       1.65
O       2.56      10.39       3.11
C       6.16       6.98       7.27
C       5.88       7.34       4.88
C       4.98       7.79       3.74
C       4.48       9.24       3.95
C       3.86       9.33       5.30
