360

C       0.31      10.10       2.52
C       0.28      10.44       0.18
C       0.28      12.29       1.64
C       0.31      33.67      41.25
C       0.28      33.33       0.68
C       0.28      31.49      42.13
C       0.30      41.25      10.10
C       0.28       0.68      10.44
C       0.28      42.13      12.29
C       0.31       2.52      33.67
C       0.28       0.18      33.33
C       0.28       1.64      31.48
C       0.28      12.21      23.98
C       0.30      11.87      21.64
C       0.31      10.03      23.10
C       0.28      31.56      19.79
C       0.30      31.90      22.13
C       0.31      33.74      20.67
C       0.28      23.98      31.56
C       0.30      21.64      31.90
C       0.31      23.10      33.74
C       0.28      19.79      12.21
C       0.30      22.13      11.87
C       0.31      20.67      10.03
C       0.29       7.90       7.64
C       0.30       6.14       9.22
C       0.30       8.39       9.96
C       0.29      35.88      36.13
C       0.30      37.64      34.56
C       0.30      35.38      33.82
C       0.29      36.13       7.90
C       0.30      34.56       6.14
C       0.30      33.82       8.39
C       0.29       7.64      35.88
C       0.30       9.22      37.64
C       0.30       9.96      35.38
C       0.30      14.42      29.10
C       0.28      16.18      30.67
C       0.29      13.93      31.41
C       0.30      29.35      14.68
C       0.29      27.59      13.10
C       0.29      29.84      12.36
C       0.30      29.10      29.35
C       0.28      30.67      27.59
C       0.29      31.41      29.84
C       0.30      14.68      14.42
C       0.28      13.10      16.18
C       0.29      12.36      13.93
C       0.27      19.33       4.65
C       0.31      19.93       2.38
C       0.31      17.67       2.99
C       0.28      24.45      39.12
C       0.28      23.84      41.39
C       0.31      26.11      40.78
C       0.27      39.12      19.33
C       0.31      41.39      19.93
C       0.31      40.78      17.67
C       0.28       4.65      24.45
C       0.28       2.38      23.84
C       0.31       2.99      26.11
C       1.52      15.62       2.39
C       0.27      13.66       1.88
C       8.87      14.36       2.10
C       0.31      16.32       2.61
C       1.52      28.16      41.36
C       0.27      30.11      41.89
C       8.88      29.40      41.69
C       0.32      27.45      41.16
C       1.52      41.38      15.62
C       0.27      41.89      13.66
C       8.87      41.67      14.36
C       0.31      41.16      16.33
C       1.52       2.41      28.16
C       0.27       1.88      30.11
C       8.88       2.08      29.40
C       0.32       2.61      27.45
C       8.88       6.69      23.85
C       0.32       8.65      23.34
C       1.52       7.95      23.56
C       0.27       5.99      24.07
C       8.87      37.07      19.90
C       0.31      35.12      20.44
C       1.51      35.83      20.24
C       0.27      37.78      19.70
C       8.88      23.85      37.08
C       0.32      23.34      35.12
C       1.52      23.56      35.82
C       0.27      24.07      37.78
C       8.87      19.90       6.70
C       0.31      20.44       8.65
C       1.51      20.24       7.94
C       0.27      19.70       5.99
C       8.88       8.58       5.60
C       0.32       9.31       3.69
C       1.51       9.07       4.39
C       0.28       8.33       6.30
C       8.88      35.19      38.17
C       0.32      34.46      40.08
C       1.52      34.70      39.38
C       0.28      35.44      37.47
C       8.88      38.17       8.58
C       0.32      40.08       9.32
C       1.51      39.38       9.07
C       0.28      37.47       8.33
C       8.88       5.60      35.19
C       0.32       3.69      34.46
C       1.51       4.40      34.70
C       0.28       6.30      35.44
C       1.51      13.73      27.06
C       0.27      13.00      25.14
C       8.88      13.25      25.85
C       0.31      13.99      27.76
C       1.51      30.04      16.71
C       0.27      30.77      18.62
C       8.88      30.53      17.92
C       0.31      29.79      16.01
C       1.51      27.06      30.04
C       0.27      25.15      30.77
C       8.88      25.85      30.53
C       0.31      27.76      29.78
C       1.51      16.71      13.74
C       0.27      18.63      13.00
C       8.88      17.92      13.24
C       0.31      16.01      13.99
C       1.51       9.60      39.75
C       0.27       9.99      41.76
C       8.88       9.88      41.02
C       0.31       9.48      39.02
C       1.51      34.18       4.02
C       0.27      33.79       2.01
C       8.88      33.89       2.75
C       0.31      34.29       4.76
C       1.51       4.02       9.60
C       0.27       2.01       9.99
C       8.88       2.75       9.88
C       0.31       4.76       9.48
C       1.51      39.75      34.17
C       0.27      41.76      33.78
C       8.88      41.02      33.89
C       0.31      39.02      34.29
C       8.88      12.72      18.29
C       0.31      12.33      20.31
C       1.51      12.43      19.57
C       0.27      12.83      17.56
C       8.88      31.05      25.48
C       0.32      31.44      23.46
C       1.51      31.34      24.21
C       0.28      30.94      26.21
C       8.88      18.30      31.05
C       0.31      20.31      31.45
C       1.51      19.57      31.34
C       0.27      17.56      30.94
C       8.88      25.48      12.72
C       0.32      23.47      12.33
C       1.51      24.21      12.43
C       0.28      26.21      12.83
C       8.88      10.79      12.44
C       0.31       9.34      10.99
C       1.51       9.87      11.52
C       0.28      11.32      12.97
C       8.88      32.98      31.33
C       0.31      34.43      32.78
C       1.51      33.90      32.25
C       0.28      32.45      30.80
C       8.88      31.33      10.79
C       0.31      32.78       9.34
C       1.51      32.25       9.87
C       0.28      30.80      11.32
C       8.88      12.44      32.98
C       0.31      10.99      34.43
C       1.51      11.52      33.90
C       0.28      12.97      32.45
C       8.87      22.34      42.89
C       0.32      20.91       1.40
C       1.52      21.43       0.88
C       0.27      22.86      42.37
C       8.87       0.88      22.34
C       0.32      42.37      20.91
C       1.52      42.89      21.43
C       0.27       1.40      22.86
H       2.43      16.07       2.51
H       7.96      13.91       2.02
H       2.44      27.71      41.23
H       7.97      29.85      41.79
H       2.43      41.27      16.07
H       7.96      41.75      13.91
H       2.44       2.54      27.71
H       7.97       1.98      29.85
H       7.96       6.25      23.97
H       2.43       8.41      23.48
H       7.96      37.51      19.77
H       2.43      35.38      20.34
H       7.96      23.97      37.53
H       2.43      23.48      35.37
H       7.96      19.77       6.26
H       2.43      20.34       8.40
H       7.97       8.44       6.04
H       2.42       9.31       3.99
H       7.97      35.33      37.73
H       2.43      34.46      39.78
H       7.97      37.73       8.44
H       2.42      39.78       9.31
H       7.97       6.04      35.34
H       2.42       4.00      34.46
H       2.42      13.87      27.50
H       7.97      13.01      25.45
H       2.42      29.90      16.27
H       7.97      30.76      18.32
H       2.42      27.50      29.90
H       7.97      25.45      30.76
H       2.42      16.27      13.88
H       7.97      18.32      13.00
H       2.42       9.51      39.30
H       7.97      10.02      41.47
H       2.42      34.26       4.47
H       7.97      33.75       2.31
H       2.42       4.47       9.51
H       7.97       2.31      10.02
H       2.42      39.30      34.26
H       7.97      41.47      33.75
H       7.97      12.81      17.84
H       2.42      12.29      20.01
H       7.97      30.96      25.93
H       2.42      31.48      23.76
H       7.97      17.84      30.96
H       2.42      20.01      31.48
H       7.97      25.93      12.80
H       2.42      23.76      12.29
H       7.97      11.13      12.76
H       2.42       9.55      11.18
H       7.97      32.64      31.01
H       2.42      34.22      32.59
H       7.97      31.01      11.13
H       2.42      32.59       9.55
H       7.97      12.76      32.64
H       2.42      11.19      34.22
H       7.96      22.67      42.56
H       2.43      21.10       1.21
H       7.96       1.21      22.67
H       2.43      42.56      21.10
N       0.30       9.60       1.25
N       0.27      11.78       0.39
N       0.29      11.44       2.70
N       0.30      34.17      42.52
N       0.27      31.99       0.47
N       0.30      32.33      41.07
N       0.30      42.52       9.60
N       0.27       0.47      11.78
N       0.29      41.07      11.45
N       0.30       1.25      34.17
N       0.27       0.39      31.99
N       0.30       2.70      32.33
N       0.29      12.72      22.71
N       0.31      10.53      21.84
N       0.30      10.87      24.16
N       0.29      31.06      21.06
N       0.31      33.24      21.93
N       0.29      32.90      19.61
N       0.29      22.71      31.06
N       0.31      21.84      33.24
N       0.30      24.16      32.90
N       0.29      21.06      12.72
N       0.31      21.93      10.53
N       0.29      19.61      10.87
N       0.29       6.57       7.93
N       0.31       7.05      10.22
N       0.29       8.80       8.66
N       0.29      37.20      35.84
N       0.31      36.72      33.55
N       0.29      34.97      35.11
N       0.29      35.84       6.57
N       0.31      33.55       7.05
N       0.29      35.11       8.80
N       0.29       7.93      37.20
N       0.31      10.22      36.72
N       0.29       8.66      34.97
N       0.29      15.75      29.38
N       0.28      15.26      31.68
N       0.30      13.52      30.12
N       0.30      28.03      14.39
N       0.28      28.51      12.09
N       0.30      30.25      13.66
N       0.30      29.38      28.03
N       0.28      31.68      28.51
N       0.30      30.12      30.25
N       0.30      14.39      15.75
N       0.28      12.09      15.26
N       0.30      13.66      13.52
N       0.29      20.28       3.69
N       0.32      18.62       2.03
N       0.28      18.02       4.30
N       0.27      23.49      40.08
N       0.30      25.15      41.74
N       0.30      25.76      39.47
N       0.29      40.08      20.29
N       0.32      41.74      18.62
N       0.28      39.47      18.02
N       0.27       3.69      23.49
N       0.30       2.03      25.15
N       0.30       4.30      25.76
N       1.45      14.31       2.05
N       8.94      15.67       2.46
N       1.45      29.47      41.70
N       8.95      28.10      41.33
N       1.45      41.72      14.31
N       8.94      41.31      15.67
N       1.45       2.07      29.47
N       8.95       2.44      28.10
N       8.94       8.00      23.51
N       1.45       6.64      23.92
N       8.94      35.76      20.24
N       1.45      37.13      19.88
N       8.94      23.51      35.77
N       1.45      23.92      37.13
N       8.94      20.24       8.01
N       1.45      19.88       6.64
N       8.95       9.09       4.34
N       1.45       8.59       5.67
N       8.95      34.68      39.43
N       1.45      35.17      38.10
N       8.95      39.43       9.09
N       1.45      38.11       8.60
N       8.95       4.34      34.68
N       1.45       5.67      35.17
N       1.44      13.22      25.80
N       8.94      13.72      27.12
N       1.44      30.55      17.97
N       8.94      30.05      16.65
N       1.44      25.80      30.55
N       8.94      27.12      30.05
N       1.44      17.97      13.22
N       8.94      16.65      13.72
N       1.45       9.87      41.08
N       8.94       9.63      39.69
N       1.45      33.91       2.69
N       8.94      34.14       4.08
N       1.45       2.69       9.87
N       8.94       4.08       9.63
N       1.45      41.08      33.90
N       8.94      39.69      34.14
N       8.95      12.45      19.63
N       1.45      12.68      18.23
N       8.95      31.32      24.14
N       1.45      31.09      25.54
N       8.95      19.63      31.32
N       1.45      18.23      31.09
N       8.95      24.14      12.45
N       1.45      25.54      12.68
N       8.95       9.84      11.48
N       1.45      10.84      12.48
N       8.95      33.94      32.29
N       1.45      32.94      31.29
N       8.95      32.29       9.84
N       1.45      31.29      10.83
N       8.95      11.48      33.93
N       1.45      12.48      32.94
N       8.94      21.38       0.93
N       1.45      22.39      42.84
N       8.94      42.84      21.39
N       1.45       0.93      22.39
