642

C      72.49      44.74      31.47
C      75.06      43.67      27.37
C      75.18      40.55      31.26
C      75.09      42.69      26.35
C      75.46      43.01      25.03
C      75.82      44.34      24.67
C      75.77      45.33      25.68
C      75.40      45.00      27.00
C      72.65      46.15      31.48
C      71.69      47.00      32.07
C      70.53      46.47      32.68
C      70.37      45.07      32.70
C      71.34      44.22      32.11
C      74.31      39.75      32.04
C      74.74      38.54      32.62
C      76.07      38.08      32.46
C      76.94      38.86      31.68
C      76.51      40.08      31.09
C      74.73      41.79      30.66
C      73.87      42.67      31.35
C      73.40      43.88      30.78
C      73.82      44.19      29.46
C      74.68      43.34      28.72
C      75.12      42.15      29.35
C      76.51      36.90      33.07
C      69.50      47.31      33.11
C      76.22      44.66      23.37
C      60.36      44.58      31.69
C      57.78      40.36      32.05
C      57.65      42.99      27.81
C      57.74      39.08      31.46
C      57.37      37.94      32.21
C      57.02      38.04      33.57
C      57.07      39.32      34.17
C      57.43      40.46      33.42
C      60.19      45.06      33.01
C      61.15      45.90      33.61
C      62.32      46.30      32.91
C      62.47      45.84      31.58
C      61.51      45.01      30.98
C      58.53      43.45      26.79
C      58.10      43.60      25.46
C      56.77      43.30      25.08
C      55.90      42.82      26.08
C      56.33      42.68      27.42
C      58.10      42.84      29.17
C      58.97      43.78      29.78
C      59.44      43.64      31.11
C      59.02      42.51      31.84
C      58.16      41.52      31.29
C      57.71      41.72      29.95
C      56.33      43.47      23.76
C      63.35      46.98      33.56
C      56.62      36.92      34.31
C      66.30      28.52      27.60
C      63.56      29.68      31.58
C      68.54      29.87      31.85
C      63.29      30.80      32.41
C      62.03      30.99      32.99
C      60.97      30.08      32.78
C      61.22      28.97      31.94
C      62.49      28.77      31.35
C      65.49      27.49      27.07
C      65.48      27.19      25.69
C      66.28      27.93      24.79
C      67.10      28.95      25.32
C      67.12      29.23      26.70
C      69.63      30.54      31.26
C      70.81      30.82      31.98
C      70.95      30.44      33.34
C      69.85      29.78      33.95
C      68.68      29.50      33.22
C      67.34      29.58      31.10
C      67.39      29.16      29.75
C      66.22      28.90      28.99
C      64.97      29.07      29.62
C      64.85      29.49      30.97
C      66.05      29.74      31.69
C      72.12      30.69      34.06
C      66.15      27.76      23.41
C      59.72      30.24      33.39
C      66.54      35.53      17.70
C      69.28      39.66      17.46
C      64.30      39.98      17.54
C      69.55      40.82      18.24
C      70.81      41.44      18.22
C      71.87      40.93      17.43
C      71.62      39.77      16.67
C      70.35      39.15      16.68
C      67.35      34.68      16.90
C      67.36      33.29      17.09
C      66.56      32.68      18.08
C      65.73      33.52      18.87
C      65.72      34.92      18.67
C      63.21      39.65      18.38
C      62.03      40.43      18.40
C      61.90      41.58      17.59
C      62.99      41.93      16.76
C      64.16      41.14      16.74
C      65.50      39.18      17.53
C      65.45      37.77      17.58
C      66.62      36.96      17.59
C      67.87      37.62      17.54
C      67.99      39.03      17.48
C      66.79      39.79      17.48
C      60.72      42.34      17.58
C      66.69      31.33      18.39
C      73.12      41.56      17.38
C      27.93       6.24       4.57
C      30.51       7.30       8.67
C      30.63      10.42       4.78
C      30.55       8.29       9.69
C      30.92       7.96      11.01
C      31.27       6.64      11.37
C      31.22       5.65      10.37
C      30.85       5.98       9.04
C      28.09       4.83       4.57
C      27.12       3.98       3.99
C      25.97       4.51       3.37
C      25.82       5.92       3.35
C      26.78       6.76       3.93
C      29.76      11.23       4.01
C      30.19      12.43       3.42
C      31.52      12.90       3.58
C      32.39      12.11       4.36
C      31.96      10.90       4.95
C      30.18       9.19       5.38
C      29.32       8.30       4.69
C      28.85       7.10       5.27
C      29.27       6.79       6.58
C      30.13       7.64       7.32
C      30.57       8.83       6.70
C      31.96      14.08       2.98
C      24.93       3.67       2.95
C      31.67       6.32      12.67
C      15.80       6.38       4.35
C      13.23      10.61       3.99
C      13.11       7.99       8.23
C      13.20      11.90       4.58
C      12.83      13.04       3.83
C      12.47      12.94       2.47
C      12.52      11.66       1.87
C      12.89      10.52       2.62
C      15.64       5.91       3.03
C      16.59       5.07       2.42
C      17.76       4.67       3.12
C      17.91       5.12       4.45
C      16.95       5.96       5.06
C      13.98       7.52       9.25
C      13.55       7.37      10.58
C      12.22       7.68      10.97
C      11.35       8.16       9.96
C      11.78       8.30       8.63
C      13.56       8.14       6.87
C      14.42       7.19       6.26
C      14.89       7.33       4.93
C      14.47       8.47       4.20
C      13.61       9.45       4.76
C      13.17       9.26       6.09
C      11.78       7.50      12.28
C      18.78       3.98       2.48
C      12.07      14.05       1.73
C      21.75      22.44       8.45
C      19.01      21.28       4.48
C      23.99      21.10       4.20
C      18.74      20.17       3.64
C      17.48      19.98       3.05
C      16.42      20.89       3.27
C      16.67      22.00       4.11
C      17.94      22.19       4.70
C      20.94      23.48       8.98
C      20.93      23.77      10.36
C      21.73      23.03      11.26
C      22.56      22.01      10.73
C      22.57      21.73       9.35
C      25.08      20.43       4.79
C      26.26      20.14       4.06
C      26.39      20.53       2.71
C      25.30      21.19       2.10
C      24.13      21.47       2.83
C      22.79      21.39       4.95
C      22.84      21.80       6.30
C      21.67      22.07       7.06
C      20.42      21.89       6.43
C      20.30      21.48       5.08
C      21.50      21.23       4.36
C      27.57      20.28       1.99
C      21.61      23.20      12.64
C      15.17      20.73       2.66
C      22.00      15.44      18.35
C      24.73      11.31      18.58
C      19.75      10.99      18.50
C      25.00      10.16      17.80
C      26.27       9.54      17.82
C      27.32      10.05      18.61
C      27.07      11.21      19.37
C      25.80      11.82      19.36
C      22.80      16.29      19.15
C      22.81      17.69      18.97
C      22.01      18.29      17.98
C      21.19      17.46      17.18
C      21.17      16.06      17.38
C      18.66      11.32      17.66
C      17.48      10.55      17.64
C      17.35       9.39      18.45
C      18.44       9.04      19.27
C      19.62       9.83      19.30
C      20.96      11.79      18.51
C      20.90      13.21      18.46
C      22.07      14.01      18.46
C      23.32      13.36      18.50
C      23.44      11.95      18.56
C      22.24      11.19      18.56
C      16.17       8.63      18.46
C      22.14      19.65      17.68
C      28.57       9.42      18.66
C      67.33      50.92      35.02
C      45.02      13.16      33.86
C      43.27      14.66      34.92
C      43.23      13.84      36.08
C      20.10       1.37       0.77
C      19.33       2.56       0.72
C      41.65      16.20      35.93
C      42.47      15.82      34.85
C      45.82      12.84      32.74
C      46.64      11.70      32.75
C      68.96      49.44      33.87
C      68.19      49.79      35.01
C      45.05      38.64       1.02
C      45.01      37.82       2.18
C      43.28      36.31       1.11
C      65.51      50.00      36.33
C      42.48      35.15       1.18
C      41.66      34.77       0.10
C      63.89      48.42      35.31
C      64.65      49.60      35.26
C      23.63       1.20       1.03
C      24.40       1.55       2.17
C      46.63      39.28       3.30
C      45.81      38.14       3.30
C      66.42      51.21      36.20
C      44.14      36.62       2.27
C      44.14      14.36      33.76
C      65.62      25.71      19.30
C      64.20      25.73      19.27
C      64.20      25.23      16.79
C      65.62      25.26      16.76
C      21.72      25.00      15.51
C      20.99      24.67      14.34
C      64.13      24.66      14.40
C      63.47      24.95      15.61
C      63.47      26.00      20.45
C      64.13      26.29      21.65
C      65.54      26.30      21.71
C      66.26      25.98      20.54
C      22.67      24.21      18.24
C      24.09      24.24      18.20
C      24.09      26.74      17.84
C      67.22      26.76      17.81
C      24.82      27.95      17.71
C      24.15      29.18      17.58
C      67.29      29.23      17.57
C      66.57      28.02      17.65
C      22.03      22.95      18.40
C      22.76      21.74      18.49
C      24.16      21.80      18.47
C      24.82      23.03      18.33
C      66.42      25.49      18.03
C      24.86      25.49      18.02
C      63.43      25.48      18.03
C      33.42      44.08      19.12
C      34.14      42.85      19.08
C      34.53      43.09      16.60
C      33.81      44.31      16.57
C      11.47       6.42      15.31
C      12.10       5.92      14.15
C      35.06      43.27      14.23
C      35.12      42.57      15.43
C      34.29      42.06      20.24
C      33.70      42.45      21.44
C      77.51      43.64      21.53
C      77.40      44.46      20.37
C      56.20       7.65      18.06
C      55.46       8.87      18.04
C      53.31       7.63      17.65
C      53.98       6.38      17.64
C      51.90       7.70      17.51
C      51.14       6.53      17.41
C      74.03      43.85      17.42
C      75.45      43.78      17.51
C      13.07       7.75      18.21
C      13.73       9.00      18.32
C      57.51      10.17      18.32
C      56.12      10.11      18.19
C      10.94       6.32      17.85
C      54.00       8.92      17.84
C      34.72      42.31      17.84
C      54.86      32.72      35.18
C      54.15      32.27      34.04
C      53.76      30.01      35.09
C      54.48      30.39      36.25
C      32.27      16.58       0.95
C      31.64      15.31       0.86
C      53.23      27.83      36.05
C      53.17      28.74      34.99
C      54.00      33.10      32.91
C      54.59      34.37      32.87
C      55.33      34.84      33.97
C      55.44      34.03      35.12
C      32.09      19.58       1.19
C      32.83      19.97       2.34
C      34.98      19.18       1.31
C      34.31      18.76       0.13
C      36.39      19.07       1.42
C      37.15      18.59       0.35
C      58.80      31.05      35.53
C      57.39      31.11      35.44
C      30.67      19.75       1.23
C      30.01      20.27       2.38
C      30.78      20.66       3.48
C      32.17      20.52       3.46
C      32.80      18.93       0.00
C      34.29      19.79       2.46
C      53.56      30.92      33.94
C      76.76      33.44      36.16
C      53.76      20.96       0.96
C      54.15      18.70       2.00
C      54.87      18.26       0.86
C      10.90      16.95       0.92
C      10.78      16.13       2.07
C      54.59      16.61       3.17
C      54.00      17.87       3.13
C      53.17      22.23       1.06
C      75.51      36.00      36.37
C      76.18      35.66      35.18
C      76.82      34.40      35.10
C      34.31      32.22      35.91
C      34.99      31.79      34.73
C      32.83      31.01      33.70
C      76.64      31.39      34.85
C      32.18      30.45      32.58
C      75.33      30.31      32.56
C      74.56      30.70      33.67
C      75.22      31.22      34.81
C      12.84      19.87       0.60
C      14.26      19.93       0.51
C      37.15      32.39      35.69
C      36.39      31.91      34.62
C      77.35      32.04      36.04
C      34.29      31.18      33.58
C      53.57      20.05       2.10
C      56.20      43.33      17.98
C      55.46      42.11      18.00
C      53.31      43.34      18.39
C      53.98      44.60      18.40
C      30.90       7.19      18.53
C      29.49       7.13      18.62
C      51.14      44.45      18.64
C      51.90      43.28      18.54
C      56.12      40.87      17.85
C      57.51      40.80      17.73
C      58.28      41.98      17.72
C      57.62      43.23      17.83
C      33.43       6.90      16.92
C      34.14       8.13      16.97
C      34.53       7.89      19.44
C      56.08      45.24      19.47
C      35.13       8.41      20.61
C      57.33      46.29      21.82
C      56.65      45.06      21.89
C      56.02      44.56      20.73
C      32.85       6.52      15.67
C      32.96       7.34      14.52
C      33.70       8.53      14.60
C      34.29       8.91      15.80
C      55.49      44.66      18.19
C      34.73       8.67      18.20
C      54.00      42.06      18.20
H      76.03      46.29      25.46
H      75.41      45.74      27.70
H      75.47      42.27      24.33
H      71.15      43.21      32.11
H      73.46      46.58      31.03
H      71.83      48.01      32.01
H      69.53      44.64      33.10
H      73.33      40.02      32.16
H      77.91      38.57      31.54
H      77.19      40.62      30.57
H      74.06      38.00      33.17
H      73.44      45.03      29.01
H      73.60      42.45      32.32
H      75.74      41.52      28.82
H      74.83      41.72      26.56
H      77.19      36.33      32.62
H      68.57      46.94      33.12
H      76.01      45.55      22.98
H      56.81      39.44      35.16
H      57.42      41.37      33.89
H      57.37      37.03      31.73
H      61.69      44.67      30.03
H      59.38      44.77      33.56
H      61.02      46.18      34.59
H      63.31      46.08      31.05
H      59.51      43.66      27.01
H      54.92      42.60      25.85
H      55.65      42.36      28.11
H      58.78      43.93      24.77
H      59.40      42.36      32.78
H      59.24      44.62      29.25
H      57.10      41.01      29.53
H      58.01      38.94      30.48
H      55.64      42.87      23.37
H      64.27      46.87      33.20
H      56.83      36.85      35.28
H      60.49      28.27      31.76
H      62.64      27.94      30.78
H      61.89      31.82      33.58
H      67.69      30.02      27.03
H      64.87      26.95      27.69
H      64.84      26.47      25.35
H      67.67      29.53      24.70
H      69.58      30.86      30.29
H      69.91      29.48      34.92
H      67.93      28.99      33.69
H      71.57      31.32      31.50
H      64.12      28.94      29.07
H      68.30      29.01      29.31
H      65.99      30.05      32.66
H      64.02      31.50      32.57
H      72.09      30.89      35.03
H      66.36      28.54      22.83
H      58.89      29.96      32.92
H      72.35      39.37      16.07
H      70.20      38.33      16.09
H      70.95      42.27      18.80
H      65.15      35.49      19.30
H      67.97      35.08      16.19
H      68.00      32.72      16.52
H      65.16      33.13      19.62
H      63.26      38.84      19.01
H      62.93      42.75      16.15
H      64.91      41.42      16.10
H      61.27      40.15      19.03
H      68.72      37.05      17.61
H      64.54      37.30      17.59
H      66.85      40.81      17.45
H      68.82      41.21      18.84
H      60.76      43.32      17.44
H      66.46      31.03      19.31
H      73.95      41.03      17.27
H      31.47       4.68      10.58
H      30.86       5.23       8.34
H      30.92       8.71      11.71
H      26.61       7.77       3.93
H      28.90       4.40       5.03
H      27.25       2.97       4.06
H      24.98       6.34       2.94
H      28.78      10.95       3.88
H      33.37      12.40       4.50
H      32.64      10.35       5.47
H      29.51      12.98       2.88
H      28.89       5.95       7.04
H      29.05       8.52       3.73
H      31.19       9.46       7.22
H      30.28       9.25       9.49
H      32.65      14.65       3.42
H      24.01       4.06       2.92
H      31.46       5.43      13.06
H      12.26      11.54       0.89
H      12.88       9.61       2.15
H      12.83      13.95       4.31
H      17.13       6.30       6.01
H      14.82       6.20       2.48
H      16.46       4.79       1.45
H      18.76       4.88       4.99
H      14.96       7.31       9.03
H      10.38       8.38      10.19
H      11.10       8.62       7.93
H      14.23       7.04      11.28
H      14.85       8.62       3.26
H      14.69       6.35       6.79
H      12.56       9.96       6.51
H      13.47      12.03       5.56
H      11.10       8.11      12.67
H      19.71       4.10       2.83
H      12.29      14.13       0.76
H      15.94      22.69       4.29
H      18.09      23.03       5.27
H      17.34      19.15       2.46
H      23.15      20.95       9.02
H      20.32      24.02       8.36
H      20.30      24.49      10.70
H      23.13      21.43      11.36
H      25.03      20.11       5.76
H      25.36      21.49       1.13
H      23.38      21.99       2.36
H      27.02      19.65       4.54
H      19.57      22.02       6.98
H      23.75      21.95       6.74
H      21.44      20.92       3.39
H      19.47      19.47       3.47
H      27.53      20.09       1.01
H      21.83      22.43      13.23
H      14.34      21.02       3.12
H      27.80      11.61      19.97
H      25.65      12.64      19.96
H      26.41       8.71      17.23
H      20.60      15.49      16.75
H      23.42      15.89      19.86
H      23.45      18.25      19.54
H      20.61      17.85      16.43
H      18.71      12.13      17.04
H      18.39       8.22      19.89
H      20.37       9.55      19.94
H      16.72      10.83      17.02
H      24.17      13.92      18.44
H      19.99      13.67      18.46
H      22.30      10.17      18.59
H      24.28       9.76      17.19
H      16.21       7.65      18.60
H      21.93      19.94      16.74
H      29.40       9.95      18.77
H      47.18      39.50       4.13
H      45.79      37.56       4.14
H      42.50      34.55       2.01
H      41.11      33.91       0.17
H      64.62      50.17      34.41
H      23.67       1.82       0.21
H      20.06       0.80       1.63
H      41.09      17.05      35.85
H      42.49      16.42      34.02
H      68.22      49.17      35.83
H      45.80      13.43      31.90
H      47.19      11.48      31.92
H      44.79      35.76       2.45
H      43.50      36.74       3.15
H      43.50      14.23      32.89
H      44.79      15.22      33.59
H      24.72      20.94      18.54
H      25.85      23.04      18.31
H      25.84      27.94      17.73
H      24.71      30.04      17.51
H      65.55      28.06      17.64
H      21.01      22.91      18.41
H      22.74      24.99      15.46
H      63.58      24.45      13.57
H      62.45      24.93      15.62
H      67.29      25.98      20.58
H      62.45      26.02      20.44
H      63.58      26.50      22.49
H      25.50      25.61      18.90
H      25.50      25.37      17.14
H      62.78      26.34      17.85
H      62.79      24.61      18.21
H      57.95      11.09      18.39
H      55.59      10.99      18.17
H      51.42       8.60      17.52
H      50.12       6.62      17.35
H      75.89      42.86      17.55
H      13.64       6.90      18.19
H      11.00       7.32      15.26
H      35.54      42.88      13.41
H      35.65      41.69      15.46
H      76.84      45.31      20.43
H      34.80      41.17      20.21
H      33.79      41.83      22.25
H      53.57       9.41      18.71
H      53.81       9.54      16.96
H      34.30      41.31      17.67
H      35.80      42.20      18.00
H      30.34      21.03       4.33
H      32.70      20.79       4.30
H      36.87      19.39       2.27
H      38.17      18.57       0.45
H      56.94      30.83      34.56
H      30.10      19.45       0.44
H      32.75      16.83       1.82
H      52.75      26.93      35.95
H      52.64      28.47      34.15
H      56.00      34.37      35.91
H      53.49      32.78      32.08
H      54.49      34.92      32.02
H      34.72      20.78       2.64
H      34.48      19.17       3.34
H      53.99      30.43      33.06
H      52.49      31.04      33.78
H      38.17      32.41      35.59
H      36.88      31.59      33.78
H      32.71      30.18      31.74
H      30.34      29.94      31.71
H      74.65      31.52      35.61
H      12.40      20.14       1.48
H      11.45      16.61       0.13
H      54.50      16.05       4.02
H      53.49      18.20       3.96
H      77.30      34.15      34.22
H      52.64      22.50       1.90
H      52.75      24.04       0.09
H      34.49      31.81      32.71
H      34.73      30.20      33.41
H      52.49      19.94       2.26
H      53.99      20.54       2.99
H      33.80       9.15      13.79
H      34.80       9.80      15.84
H      35.65       9.29      20.58
H      35.54       8.10      22.63
H      55.54      43.65      20.78
H      32.29       5.66      15.61
H      31.35       8.11      18.49
H      50.12      44.36      18.69
H      51.42      42.38      18.52
H      58.19      44.08      17.85
H      55.59      39.99      17.87
H      57.95      39.88      17.66
H      35.80       8.78      18.04
H      34.30       9.67      18.37
H      53.81      41.44      19.09
H      53.57      41.56      17.33
N      63.13      48.03      34.28
N      69.72      48.35      33.86
N      18.56       2.93       1.74
N      25.15       2.65       2.19
N      66.68      30.41      17.47
N      66.15      26.59      22.85
N      21.61      24.38      13.20
N      22.14      20.57      18.60
N      73.18      42.84      17.43
N      76.91      43.82      22.70
N      12.21       6.51      12.96
N      15.04       9.22      18.35
N      59.66      30.72      34.57
N      55.92      36.01      33.74
N      31.53      14.39       1.81
N      28.70      20.37       2.58
N      73.25      30.60      33.47
N      76.08      36.58      34.23
N      11.38      14.97       2.30
N      15.11      20.26       1.47
N      56.76      44.47      23.08
N      59.59      41.75      17.69
N      28.63       8.14      18.61
N      32.37       7.16      13.34
