20

H      13.66       6.56      14.92
H      13.92       4.79      12.45
F       8.72       6.69      15.33
F      14.14       4.55      14.93
H      13.75       6.64      12.55
H       8.87       6.95      12.76
C      10.92       5.80      15.18
C      11.95       5.32      14.37
C      11.93       5.47      13.00
C       9.73       6.46      13.19
C       9.76       6.29      14.58
C      13.42       5.60      14.43
C      13.41       5.66      12.92
C      10.87       6.16      12.41
C      11.04       6.87      11.16
C      10.99       5.52      16.60
O       9.95       5.13      17.23
O      12.16       5.33      17.02
O      10.00       7.37      10.64
O      12.22       7.18      10.79
