20

O       9.70       1.45       1.59
O       8.39       3.29       1.60
F       5.96       1.73       2.72
F       9.72       3.09       6.99
H      10.24       3.44       4.52
H      10.77       1.31       6.69
H       5.49       1.25       5.27
H      11.28       1.97       4.32
C       8.27       1.77       3.37
C       9.21       1.54       4.36
C       8.85       1.27       5.66
C       6.53       1.37       5.02
C       6.91       1.61       3.68
C       7.13       1.20       7.42
C      10.37       2.37       4.76
C      10.04       2.00       6.20
C       7.51       1.33       6.03
C       8.75       2.16       2.07
O       6.86       2.33       8.03
O       7.82       0.29       8.05
