54

C       0.46       2.32      15.74
C       2.37       3.22      19.51
C       5.31       3.79      21.96
C       1.08       2.65      17.06
C       2.77       2.12      18.72
C       2.14       1.84      17.52
C       1.25       3.97      19.09
C       0.63       3.70      17.87
C       5.17       3.05      23.15
C       6.29       4.80      21.89
C       7.02       5.15      23.01
C       6.86       4.43      24.20
C       7.69       4.87      25.37
C       5.95       3.35      24.26
C       0.47       4.88      25.73
C       2.36       3.96      21.96
C       5.30       3.33      19.53
C       1.10       4.52      24.42
C       2.78       5.05      22.76
C       2.16       5.33      23.97
H       3.60       1.49      19.03
H       2.43       0.98      16.91
H       0.91       4.79      19.71
H      -0.22       4.30      17.54
C       0.63       3.47      23.61
C       1.24       3.20      22.39
H       7.75       5.96      22.99
C       5.15       4.08      18.35
H       5.87       2.78      25.19
C       6.28       2.31      19.57
C       5.92       3.80      17.22
C       7.00       1.98      18.44
H       4.43       2.24      23.21
H       6.41       5.35      20.96
C       6.83       2.73      17.26
C       7.69       2.32      16.09
C       3.11       3.58      20.74
C       4.49       3.57      20.75
H       3.61       5.67      22.43
H       2.46       6.19      24.57
H       0.88       2.38      21.77
H      -0.21       2.87      23.96
H       4.42       4.89      18.33
H       6.42       1.76      20.50
H       7.72       1.17      18.43
H       5.83       4.39      16.31
O      -0.32       3.21      15.22
O       0.81       1.21      15.25
O       7.75       4.00      26.35
O       8.28       5.97      25.32
O      -0.32       4.00      26.26
O       0.78       6.01      26.20
O       7.76       3.20      15.12
O       8.29       1.22      16.12
