54

C       5.36      10.88      19.51
C       9.61       9.73      24.40
C       7.90       9.22      22.75
C       8.55       8.92      23.95
C       9.43      11.07      22.38
C      10.06      10.79      23.59
C       5.50      10.13      18.33
C       4.38      11.89      19.57
C       3.66      12.24      18.44
C       3.84      11.52      17.25
C       3.03      11.97      16.08
C       4.73      10.43      17.21
C      10.25      11.99      15.78
C       8.30      11.06      19.52
C       5.35      10.43      21.94
C       9.59      11.63      17.08
C       7.89      12.15      18.72
C       8.52      12.44      17.52
C       9.41      10.30      19.10
C      10.04      10.56      17.88
C       5.49      11.18      23.12
C       4.38       9.41      21.89
C       3.65       9.08      23.02
C       3.81       9.82      24.21
H       7.08       8.59      22.42
H       8.25       8.06      24.55
H       9.79      11.89      21.77
H      10.91      11.39      23.93
H       6.21       9.30      18.30
H       4.23      12.43      20.51
H       2.94      13.05      18.45
H       4.80       9.83      16.30
C       4.73      10.89      24.25
C       2.94       9.42      25.37
H       7.06      12.77      19.06
H       8.22      13.29      16.92
H       9.76       9.48      19.73
H      10.88       9.96      17.55
C       7.55      10.68      20.74
C       6.17      10.66      20.73
H       6.22      11.99      23.15
H       4.25       8.86      20.95
H       4.81      11.50      25.15
H       2.91       8.28      23.00
O      11.01      10.28      26.25
O       9.90       8.26      26.19
O       2.90      11.08      15.13
O       2.53      13.11      16.11
O      10.99      11.08      15.23
O      10.00      13.15      15.36
O       2.94      10.23      26.40
O       2.28       8.37      25.26
C      10.23       9.39      25.73
C       8.31      10.32      21.96
