444

H      20.00      15.19      24.36
H      22.08      11.31      35.01
H      19.45      15.21       4.17
H      18.61       3.57      35.60
H      20.24       6.96       0.45
H      21.98       4.44       1.89
H      21.95       2.92      35.59
H      17.41       1.32       2.63
H      22.04       7.96      33.16
H      22.37       9.26      35.52
H      20.10       3.43       4.14
H      17.67       0.38      36.85
H      22.30       4.52      32.64
H       8.34       7.33      10.84
H      10.48       4.26      12.81
H       7.46       4.08      14.30
H       6.12       4.79      10.88
H       7.11       9.61      14.93
H      10.44       2.15       8.48
H      11.40       1.25      10.84
H       7.57       6.26      16.50
H       6.08       9.75      12.01
H       7.39       3.66       7.92
H      16.79      14.42      23.16
H      13.05      14.11      25.11
H      14.40      16.82      26.60
H      15.71      17.61      23.20
H      19.36      14.36      27.26
H      11.26      15.24      20.77
H      10.00      14.83      23.10
H      16.22      15.63      28.81
H      13.98      17.02      20.17
H      -4.86      21.99      36.19
H      -6.76      18.83       1.36
H      -8.95      21.12       1.51
H      -7.76      21.71      34.79
H      -4.85      24.57       3.16
H      -6.69      16.29      34.21
H      -7.51      16.50       1.43
H      -7.60      22.25       4.15
H      -4.15      25.27       0.65
H      -7.08      19.44      32.61
H       6.75      18.53      11.58
H       4.97      21.78      13.77
H       8.06      22.52      13.92
H       7.98      21.17      10.14
H       8.94      17.27      15.65
H       2.75      22.95       9.52
H       3.32      23.58      13.81
H       8.34      20.80      16.59
H       9.19      16.27      13.17
H       5.70      21.70       7.95
H      -2.04      10.22      23.90
H       1.65      10.14      26.11
H       0.75       7.10      26.27
H      -0.36       7.83      22.48
H      -4.26       8.95      27.95
H       3.77      11.49      21.87
H       4.04      10.68      26.16
H      -0.89       7.71      28.92
H      -5.23       9.22      25.45
H       1.24       9.56      20.29
H      -6.91      13.62      35.07
H      18.21      14.14       5.95
H      17.87      11.73       5.93
H      18.76      10.39       4.11
H      13.34       0.50      10.32
H       0.52      24.46      10.37
H      18.04       0.88      16.53
H      17.72       2.50      18.31
H      15.80       3.99      18.28
H      14.19       3.87      16.47
H       8.32      13.59      22.65
H       6.16      12.71      22.73
H       6.40       9.24      28.83
H       7.99       8.68      30.57
H      10.24       9.60      30.52
H      10.91      11.07      28.72
H       9.80      14.33      12.29
H       9.84      11.97      12.16
H       3.36      10.74       9.69
H       1.38      11.96       8.98
H       1.34      14.38       9.11
H       3.26      15.60       9.94
H      11.88       1.37      36.79
H      13.90       2.59      36.68
H       3.64      22.92      34.50
H       3.59      20.58      33.86
H       1.52      19.33      33.96
H      -0.53      20.40      34.70
H      22.11       9.66      24.55
H      20.04      10.79      24.42
H      -7.10      17.07      22.07
H      -5.05      18.19      21.40
H      -2.93      17.02      21.53
H      -2.83      14.73      22.32
H       6.40      24.47       3.98
H       6.44      23.00       5.87
H      18.77       1.95      10.90
H      17.96       4.22      11.16
H      17.92       5.73       9.26
H      18.69       4.98       7.08
H       3.32       7.61      16.31
H       2.02       8.30      18.19
H       6.90       8.08      23.26
H       9.26       7.62      23.54
H      10.60       6.91      21.65
H       9.58       6.65      19.46
H      -9.81      18.65      28.64
H      -8.57      19.43      30.53
H      18.13      15.29      35.58
H      16.56      13.46      35.85
H      15.28      12.66      33.95
H      15.57      13.67      31.77
H       5.89       1.08       4.31
H       5.97       2.45       6.26
H      -5.45      23.48      10.74
H      -4.38      21.30      10.74
H      -4.43      19.91       8.75
H      -5.55      20.68       6.75
H      12.60      19.77      16.70
H      13.78      19.01      18.64
H       8.43      18.30      23.17
H       6.01      18.43      23.20
H       4.80      19.16      21.22
H       6.01      19.78      19.21
H      25.34       4.58      29.03
H      24.06       3.98      30.95
H      -3.13       8.92      35.48
H      -1.75      10.92      35.52
H      -0.47      11.56      33.56
H      -0.55      10.21      31.55
C      21.00      13.28       1.02
C      21.82      11.78      35.88
C      18.83      17.17      32.11
C      25.54       5.05      29.91
C      20.83      12.66      23.80
C      22.13      10.63      24.24
C      18.31      17.26      29.71
C      19.80       4.30       0.13
C      18.86       3.43      36.59
C      18.35       2.29       0.19
C      18.77       2.05       1.52
C      19.67       2.93       2.18
C      20.17       4.06       1.48
C      20.56       5.19      36.38
C      21.27       4.66      35.27
C      22.07       5.49      34.46
C      22.10       6.88      34.73
C      21.48       7.44      35.88
C      20.72       6.57      36.70
C      21.66       8.84      36.10
C      20.05       2.68       3.50
C      17.54       1.36      36.58
C      22.79       4.98      33.38
C       8.40       5.98      12.47
C       8.11       7.21      11.83
C       7.43       8.25      12.50
C       7.04       8.05      13.84
C       7.34       6.85      14.53
C       8.05       5.82      13.84
C       8.79       4.86      11.68
C       7.97       4.50      10.56
C       8.29       3.38       9.76
C       9.47       2.66      10.04
C      10.27       2.93      11.19
C       9.90       4.03      12.00
C      11.39       2.08      11.41
C       6.94       6.67      15.85
C       7.01       9.39      11.79
C       7.50       3.02       8.67
C      15.58      15.04      24.78
C      16.80      14.67      24.16
C      18.04      14.76      24.82
C      18.05      15.20      26.17
C      16.85      15.54      26.85
C      15.61      15.44      26.15
C      14.43      15.27      23.98
C      14.53      16.17      22.87
C      13.41      16.46      22.07
C      12.19      15.80      22.33
C      12.01      14.97      23.48
C      13.15      14.73      24.30
C      10.72      14.43      23.70
C      16.89      15.98      28.17
C      19.24      14.54      24.13
C      13.50      17.33      20.99
C      -6.40      21.30       0.41
C      -5.41      22.22      37.03
C      -5.15      23.44       0.62
C      -5.88      23.72       1.81
C      -6.87      22.83       2.31
C      -7.12      21.63       1.59
C      -6.69      20.11      36.75
C      -6.87      20.13      35.34
C      -7.22      18.95      34.63
C      -7.27      17.71      35.32
C      -7.17      17.66      36.74
C      -6.90      18.87       0.35
C      -7.41      16.47       0.41
C      -7.47      23.03       3.55
C      -4.16      24.36       0.19
C      -7.65      19.02      33.31
C       6.93      20.22      12.84
C       7.22      18.90      12.40
C       8.13      18.06      13.09
C       8.74      18.56      14.27
C       8.47      19.88      14.75
C       7.57      20.69      14.02
C       6.04      21.06      12.10
C       6.16      21.20      10.69
C       5.32      22.08       9.97
C       4.26      22.75      10.65
C       4.17      22.70      12.07
C       5.08      21.87      12.76
C       3.25      23.50      12.80
C       8.96      20.31      15.99
C       8.42      16.73      12.69
C       5.60      22.41       8.64
C      -0.67       9.22      25.17
C      -1.96       9.62      24.73
C      -3.15       9.25      25.40
C      -3.02       8.47      26.58
C      -1.76       8.05      27.07
C      -0.59       8.43      26.36
C       0.50       9.57      24.43
C       0.56       9.40      23.02
C       1.75       9.69      22.31
C       2.85      10.28      22.99
C       2.86      10.38      24.41
C       1.68      10.00      25.10
C       4.01      10.78      25.14
C      -1.63       7.42      28.31
C      -4.44       9.66      24.99
C       1.90       9.29      20.98
C      21.24      11.08      36.97
C      20.79      11.87       0.99
C      -7.70      13.94      37.00
C      -7.33      13.17      35.89
C      19.83      13.42       3.10
C      19.63      12.02       3.08
C      19.32      14.20       4.15
C      18.59      13.57       5.19
C      18.39      12.18       5.17
C      18.91      11.40       4.12
C      13.55       1.35      12.28
C      14.47       1.36      13.36
C      15.60       0.48      13.39
C       1.19      24.99      12.31
C       0.34      25.05      11.19
C      13.88       0.50      11.18
C      16.29       1.43      15.46
C      15.17       2.30      15.44
C      17.23       1.50      16.52
C      17.04       2.44      17.55
C      15.93       3.30      17.53
C      14.99       3.23      16.48
C       8.98      12.95      24.58
C       8.55      12.14      25.66
C       7.23      11.60      25.71
C       6.32      11.83      24.65
C       6.78      12.56      23.53
C       8.06      13.11      23.51
C       7.73      10.49      27.76
C       9.05      11.03      27.72
C       7.35       9.64      28.80
C       8.27       9.31      29.82
C       9.57       9.84      29.78
C       9.96      10.70      28.74
C       7.78      14.60      11.66
C       6.68      13.87      11.14
C       6.70      12.45      11.09
C       7.85      11.72      11.50
C       9.00      12.46      11.86
C       8.96      13.86      11.96
C       4.47      12.46      10.22
C       4.44      13.88      10.30
C       3.35      11.76       9.74
C       2.20      12.47       9.33
C       2.17      13.87       9.41
C       3.29      14.58       9.89
C      -1.98      24.86      36.25
C      -0.79      24.25      35.79
C       0.44      24.99      35.76
C      15.13       0.97      36.13
C      13.91       1.60      36.40
C      12.72       0.86      36.50
C       1.57      23.03      34.98
C       0.36      22.30      35.03
C       2.76      22.40      34.55
C       2.74      21.04      34.17
C       1.53      20.31      34.23
C       0.34      20.94      34.66
C      -5.97      11.28      23.96
C      -6.04      12.61      23.46
C      -7.29      13.30      23.41
C      20.89      11.29      24.13
C      -6.16      15.24      22.58
C      -4.92      14.56      22.66
C      -6.21      16.57      22.12
C      -5.02      17.22      21.74
C      -3.78      16.55      21.81
C      -3.73      15.22      22.27
C      20.45       0.82       5.04
C      20.07       1.29       6.32
C      20.09       0.41       7.44
C       5.82      24.44       7.29
C       6.20      23.98       6.01
C       6.18      24.86       4.91
C      19.21       2.14       8.83
C      19.18       3.02       7.72
C      18.76       2.58      10.09
C      18.29       3.90      10.25
C      18.27       4.77       9.14
C      18.71       4.34       7.88
C       5.12       7.26      17.38
C       5.71       7.34      18.67
C       4.93       7.75      19.79
C       3.57       8.10      19.62
C       2.99       8.02      18.34
C       3.76       7.60      17.24
C       6.86       7.62      21.20
C       7.64       7.21      20.09
C       7.45       7.77      22.46
C       8.83       7.51      22.62
C       9.60       7.09      21.52
C       9.01       6.95      20.25
C      18.08      16.70      30.99
C      -9.51      18.18      31.95
C      -9.30      18.73      30.67
C     -10.04      18.27      29.57
C      17.76      15.55      33.51
C      17.01      15.08      32.40
C      17.59      14.96      34.78
C      16.68      13.90      34.93
C      15.94      13.43      33.83
C      16.10      14.02      32.56
C      -7.95      24.73       5.21
C      -7.40      24.23       6.41
C      -7.37      25.05       7.58
C       6.82       0.99       7.54
C       6.25       1.47       6.34
C       6.19       0.66       5.19
C      -6.14      23.34       8.74
C      -6.17      22.53       7.58
C      -5.48      22.89       9.90
C      -4.86      21.63       9.90
C      -4.89      20.82       8.75
C      -5.54      21.27       7.58
C      10.69      19.90      17.62
C      10.00      19.66      18.84
C      10.70      19.22      19.99
C      12.10      18.98      19.93
C      12.79      19.25      18.73
C      12.09      19.70      17.59
C       8.63      18.98      21.17
C       7.93      19.41      20.02
C       7.93      18.62      22.34
C       6.52      18.69      22.35
C       5.82      19.12      21.21
C       6.52      19.48      20.04
C      -2.88       6.14      29.95
C      -2.73       6.86      31.16
C      -3.49       6.49      32.31
C      24.90       5.43      32.25
C      24.78       4.70      31.04
C      -2.63       8.39      33.50
C      -1.88       8.76      32.35
C      -2.58       9.18      34.66
C      -1.79      10.34      34.68
C      -1.04      10.72      33.55
C      -1.09       9.93      32.38
N      20.51      14.00       2.07
N      18.63      16.57      33.32
N      20.12      11.30       2.03
N      21.09       9.71      36.98
N      -7.45      15.26      36.88
N      16.46       0.56      14.44
N      14.31       2.23      14.40
N      12.43       2.15      12.29
N       2.22      24.12      12.18
N       6.88      10.80      26.75
N       9.40      11.83      26.68
N      10.25      13.50      24.57
N       5.06      11.38      24.53
N       5.59      11.81      10.62
N       5.54      14.52      10.76
N       7.63      15.93      11.94
N       7.93      10.38      11.72
N       1.56      24.33      35.34
N      -0.76      22.94      35.44
N      -3.05      24.06      36.54
N      16.25       1.71      36.39
N      -7.28      14.58      22.97
N      -4.91      13.28      23.10
N      -4.74      10.76      24.25
N      19.62      13.25      24.03
N      19.65       0.88       8.64
N      19.61       2.55       6.52
N      20.23       1.47       3.91
N       5.66      23.66       8.34
N       5.54       7.88      20.99
N       7.03       7.10      18.88
N       5.80       7.12      16.25
N       2.96       8.62      20.68
N      17.22      15.67      31.20
N      17.85      16.74      28.57
N      -8.76      18.45      33.01
N      -6.73      24.56       8.68
N      -6.79      23.02       6.47
N      -7.65      24.21       4.02
N       7.24       1.77       8.51
N       9.98      18.89      21.10
N       8.64      19.72      18.91
N      10.08      19.89      16.45
N      12.59      18.23      20.90
N      -3.40       7.28      33.42
N      -1.98       7.99      31.24
N      -2.57       6.67      28.78
N      23.98       5.41      33.20
O      18.22       0.98       2.18
O      22.73       7.70      33.82
O      21.11       4.85       2.08
O      21.26       3.32      35.00
O       6.40       9.08      14.49
O       9.86       1.69       9.14
O       8.26       4.62      14.46
O       6.81       5.17      10.29
O      19.26      15.23      26.82
O      11.16      15.96      21.43
O      14.47      15.86      26.76
O      15.70      16.83      22.61
O      -5.56      24.84       2.53
O      -7.54      16.58      34.61
O      -8.15      20.84       2.02
O      -6.87      21.32      34.66
O       9.53      17.73      15.02
O       3.42      23.54       9.93
O       7.41      21.99      14.43
O       7.19      20.59      10.02
O      -4.15       8.20      27.32
O       3.96      10.62      22.27
O       0.61       7.93      26.77
O      -0.47       8.80      22.35
