12

C      -2.31      -4.66      10.41
C      -2.38      -3.81       9.23
C      -2.35      -3.97       7.84
C      -2.46      -2.67       7.34
C      -2.60      -2.03       5.99
H      -2.28      -4.90       7.28
N      -2.49      -2.47       9.53
N      -2.53      -1.80       8.38
O      -2.30      -4.06      11.56
O      -2.22      -5.93      10.37
O      -2.64      -0.72       6.02
O      -2.71      -2.74       4.98
