12

O       2.21      -1.95      10.35
C       2.32      -3.22      10.40
C       2.40      -4.08       9.23
C       2.39      -3.92       7.84
C       2.50      -5.22       7.34
C       2.66      -5.86       6.00
H       2.34      -3.00       7.27
N       2.56      -6.09       8.39
O       2.71      -7.17       6.04
O       2.78      -5.15       4.99
N       2.50      -5.41       9.53
O       2.32      -3.80      11.56
