12

N       1.45      -1.44      14.10
N       2.13      -1.39      15.24
C       1.90      -1.26      17.63
O      -0.15      -1.60      12.07
O      -2.01      -1.70      13.28
O       3.21      -1.23      17.59
O       1.20      -1.13      18.64
H      -0.97      -1.55      16.36
C      -0.74      -1.60      13.23
C       0.12      -1.53      14.40
C      -0.05      -1.52      15.79
C       1.26      -1.43      16.29
