12

H      10.27       3.08       7.27
C      10.23       3.32      10.40
C      10.29       4.17       9.22
C      10.29       4.00       7.83
C      10.37       5.31       7.33
O      10.23       3.91      11.55
O      10.15       2.05      10.35
N      10.36       5.51       9.52
N      10.40       6.18       8.38
C      10.52       5.96       5.98
O      10.55       7.27       6.02
O      10.65       5.25       4.97
