88

O      19.12       5.33       7.31
C      22.73       7.83       1.38
C      20.82       8.47       7.92
C      20.42       7.30       7.26
C      22.07       7.77       3.93
C      21.99      10.66       7.95
O      19.12       6.69       9.14
C      20.85       7.04       5.95
C      26.22       8.79       1.46
C      22.08       9.14       5.96
O      23.32       4.61      -7.31
O      24.53       5.28      -9.13
O      26.92       9.42      -9.14
C      23.84       8.61       0.98
O      26.92      10.79      -7.31
C      26.47       9.07       0.10
C      21.93       7.25       0.37
C      25.00      11.04       0.24
C      21.68       7.96       5.28
C      24.85       9.27       1.92
C      24.91      12.34      -0.23
C      25.30       9.78      -0.58
H      20.47       8.67       8.92
C      27.68       8.70      -0.49
C      27.18       8.13       2.22
C      24.78      10.76       1.60
H      20.52       6.14       5.45
C      24.50      11.79       2.50
H      22.71       9.87       5.45
C      28.63       8.02       0.28
H      24.65       9.05       2.97
H      25.05      12.56      -1.29
C      24.43      13.10       2.02
C      24.62      13.38       0.67
H      25.49       9.99      -1.64
H      27.87       8.93      -1.53
H      26.99       7.91       3.27
C      28.39       7.74       1.63
H      24.34      11.57       3.55
H      29.57       7.71      -0.17
H      24.20      13.92       2.71
H      24.53      14.40       0.31
H      29.14       7.21       2.21
H      25.57       7.44      -8.92
H      25.52       9.98      -5.45
H      23.33       6.25      -5.45
H      21.39       7.07      -2.97
H      20.99       3.56       1.29
H      20.55       6.13       1.64
H      18.17       7.19       1.53
H      19.05       8.21      -3.27
H      21.70       4.55      -3.55
H      16.47       8.41       0.17
C      26.55       9.75      -7.96
C      23.65       8.39      -2.75
H      21.83       2.19      -2.71
C      24.39       6.73      -7.26
H      21.51       1.71      -0.31
C      23.30       8.29      -1.38
C      25.22       7.65      -7.92
H      16.90       8.90      -2.21
C      25.61       8.82      -7.26
C      23.97       8.34      -3.93
C      24.04       5.45      -7.95
C      25.19       9.07      -5.95
C      19.81       7.32      -1.46
C      23.95       6.98      -5.96
C      22.20       7.50      -0.98
C      19.56       7.04      -0.10
C      24.10       8.86      -0.37
C      21.04       5.08      -0.24
C      24.36       8.15      -5.28
C      21.19       6.84      -1.92
C      21.13       3.77       0.23
C      20.73       6.33       0.58
C      18.36       7.42       0.49
C      18.86       7.99      -2.22
C      21.26       5.36      -1.60
C      21.53       4.33      -2.50
C      17.40       8.10      -0.28
C      21.61       3.01      -2.02
C      21.42       2.73      -0.67
C      17.65       8.38      -1.63
C      19.49       6.37       7.96
O      22.72      11.50       7.31
C      22.39       7.73       2.75
O      21.51      10.83       9.13
C      21.65       9.39       7.26
