88

O      23.23       5.29      25.61
O      24.44       4.63      27.43
O      26.85       0.49      27.44
H      20.48       1.24       9.36
O      26.85      -0.87      25.61
H      20.51       3.76      12.84
H      22.72       0.04      12.84
H      24.62       0.87      15.32
H      25.03      -2.64      19.58
H      25.46      -0.08      19.94
H      27.84       0.99      19.83
H      26.96       2.01      15.03
H      24.32      -1.65      14.74
H      29.55       2.20      18.48
H      24.20      -4.01      15.59
H      24.52      -4.49      17.98
H      29.12       2.70      16.09
C      26.48       0.17      26.26
C      23.61       1.52      21.04
C      24.31       3.18      25.56
C      23.27       1.62      19.67
C      25.14       2.27      26.22
C      25.55       1.10      25.56
C      23.91       1.58      22.23
H      25.49       2.47      27.22
C      23.96       4.46      26.25
C      25.13       0.85      24.25
H      25.47      -0.05      23.74
C      19.78       2.58      19.74
H      23.25       3.66      23.75
C      23.88       2.94      24.26
H      21.36       2.84      21.26
H      20.95       6.35      17.00
C      22.16       2.41      19.27
H      20.52       3.78      16.65
H      18.13       2.72      16.75
H      19.02       1.70      21.56
C      19.53       2.87      18.39
H      21.66       5.36      21.84
C      24.07       1.05      18.66
C      21.00       4.83      18.53
H      16.43       1.51      18.11
C      24.30       1.77      23.58
C      21.15       3.06      20.21
C      21.09       6.14      18.06
H      21.78       7.71      21.00
H      21.46       8.20      18.61
H      16.86       1.01      20.50
C      20.70       3.57      17.71
C      18.33       2.49      17.80
C      18.82       1.92      20.51
C      21.22       4.55      19.89
C      21.49       5.58      20.79
C      17.37       1.81      18.57
C      21.56       6.90      20.32
C      21.37       7.17      18.96
C      17.61       1.53      19.91
C      19.50       3.54      10.33
C      22.37       2.18      15.54
C      21.67       0.52      11.03
C      22.71       2.08      16.91
C      20.83       1.44      10.37
C      20.43       2.60      11.03
C      22.06       2.13      14.36
C      22.02      -0.75      10.34
C      20.85       2.86      12.34
C      26.20       1.12      16.84
C      22.09       0.77      12.33
C      23.81       1.30      17.31
C      26.45       0.84      18.20
C      21.90       2.66      17.93
C      24.98      -1.12      18.06
C      21.68       1.94      13.01
C      24.82       0.64      16.38
C      24.89      -2.43      18.53
C      25.28       0.13      18.88
C      27.65       1.22      18.79
C      27.15       1.79      16.08
C      24.76      -0.85      16.70
C      24.49      -1.87      15.80
C      28.61       1.89      18.02
O      22.75      -1.58      10.98
O      21.53      -0.92       9.16
C      24.42      -3.19      16.27
O      19.13       3.21       9.15
O      19.13       4.57      10.98
C      24.60      -3.47      17.63
C      28.36       2.17      16.68
