88

O      20.38      15.38      25.74
O      20.40      16.68      27.62
H      24.24      19.68      12.69
O      23.89      21.59      25.75
O      22.75      20.91      27.61
H      24.17      17.24       9.15
H      22.13      15.91      12.69
H      25.39      21.72      15.71
H      21.25      21.89      21.07
H      23.02      20.64      15.97
H      25.81      21.52      20.68
H      23.42      20.47      20.74
H      27.47      22.53      16.83
H      20.87      22.13      16.10
H      19.16      23.23      17.55
H      19.34      23.09      20.02
H      27.68      22.43      19.29
C      23.20      20.75      26.42
C      23.07      17.92      19.71
C      22.04      17.14      24.42
C      20.76      16.40      26.42
H      21.70      16.25      23.90
C      21.68      17.36      25.75
H      21.76      18.69      27.44
C      22.08      18.52      26.42
H      23.81      20.03      23.89
C      22.85      19.47      25.74
C      22.90      16.74      18.96
H      20.54      14.22      20.88
H      24.68      14.04      15.51
H      22.91      15.30      20.62
C      23.10      17.91      21.12
C      23.22      19.27      24.41
H      20.12      14.41      15.91
C      23.15      19.15      19.01
H      22.51      15.46      15.85
C      21.49      14.76      19.02
H      18.47      13.40      19.76
C      21.38      14.81      17.62
C      20.45      14.26      19.80
C      24.76      13.99      16.60
H      25.06      13.80      20.49
C      23.04      17.97      22.34
H      26.78      12.71      19.03
H      26.59      12.85      16.57
C      22.82      15.32      19.53
H      18.25      13.51      17.30
C      23.92      14.54      18.81
C      23.81      14.60      17.41
C      22.81      18.11      23.73
C      20.22      14.36      17.00
C      22.60      15.41      16.94
C      19.29      13.80      19.16
C      24.98      13.85      19.40
C      25.94      13.24      18.59
C      25.84      13.31      17.20
C      19.17      13.85      17.77
C      22.73      15.19      10.17
C      22.87      18.01      16.87
C      23.89      18.79      12.17
C      25.18      19.54      10.17
C      24.26      18.58      10.84
C      23.86      17.42      10.17
C      23.08      16.47      10.84
C      23.04      19.20      17.62
C      22.84      18.03      15.47
C      22.71      16.67      12.18
C      22.79      16.79      17.57
C      24.44      21.17      17.57
C      24.56      21.12      18.96
C      25.48      21.68      16.79
C      21.17      21.95      19.99
C      23.13      17.83      12.86
C      22.89      17.96      14.25
C      22.13      21.34      19.18
C      23.11      20.61      17.06
C      22.01      21.39      17.78
C      25.72      21.58      19.59
C      23.33      20.52      19.65
C      26.65      22.14      17.42
O      25.56      20.55      10.85
C      20.96      22.08      17.18
C      19.99      22.70      18.00
O      25.54      19.25       8.97
O      22.05      14.34      10.84
O      23.18      15.02       8.98
C      26.77      22.09      18.82
C      20.10      22.62      19.39
