88

O      12.18       7.19      27.49
O      13.37       7.88      25.67
O       6.23       7.67      25.60
O       7.42       7.01      27.44
H       8.51      12.54       9.34
H       6.36      11.21      12.82
H      10.69      11.36      12.85
H       5.16       9.85      21.52
H       6.87       5.78      20.38
H       6.42       9.33      16.15
H       4.39      10.88      16.70
H       6.09       6.80      15.56
H       7.17       8.35      20.77
H       3.30      11.37      20.84
H       2.92      11.89      18.45
H       6.07       4.44      16.36
H       6.45       3.93      18.75
C      12.28       7.66      26.30
C      11.01       7.95      25.58
C       7.32       7.49      26.25
C       9.38       9.64      19.68
C       9.80       7.67      26.24
C      10.37      10.27      18.89
H       9.81       7.28      27.25
C      11.01       8.41      24.26
C       8.58       8.32      24.25
H      11.96       8.61      23.77
H       7.63       8.46      23.73
C       9.59       9.33      21.05
H      13.16       9.97      15.07
H      11.45      14.04      16.21
C       8.59       7.85      25.57
C       9.79       8.60      23.58
C      12.74      10.03      18.46
H      11.90      10.49      20.44
C       9.74       9.02      22.22
C      12.52      10.32      17.10
C      13.34       9.75      16.12
H      13.93       8.94      19.89
H      12.23      13.02      21.03
H      11.15      11.47      15.82
C       8.17       9.27      19.05
C      11.62      13.82      17.26
H      15.02       8.45      15.75
H      15.40       7.93      18.14
H      12.25      15.38      20.22
H      11.87      15.89      17.84
C      11.82      12.21      19.07
C      11.74      10.72      19.38
C      13.77       9.17      18.84
C      12.06      13.24      19.98
C      11.33      11.25      16.88
C      11.60      12.50      17.71
C      14.38       8.90      16.51
C      14.60       8.61      17.86
C      12.07      14.57      19.52
C      11.85      14.85      18.17
C       6.04      12.16      10.29
C       7.31      11.87      11.00
C      11.00      12.33      10.34
C       8.94      10.18      16.91
C       8.52      12.15      10.35
C       7.95       9.55      17.69
C       7.31      11.41      12.33
C       9.74      11.50      12.34
C       8.73      10.49      15.54
C       9.73      11.97      11.02
C       8.53      11.22      13.01
C       5.58       9.79      18.13
C       8.58      10.80      14.37
C       5.80       9.50      19.49
C       4.98      10.07      20.47
C      10.15      10.55      17.54
C       6.70       6.00      19.33
C       6.50       7.61      17.52
C       6.58       9.10      17.20
C       4.55      10.65      17.75
C       6.26       6.58      16.61
C       6.99       8.57      19.71
C       6.72       7.32      18.87
O       6.14      12.63       9.10
C       3.94      10.92      20.08
C       3.72      11.21      18.73
O       4.95      11.94      10.92
O      12.09      12.15      10.99
C       6.25       5.25      17.06
O      10.90      12.81       9.15
C       6.47       4.97      18.41
