12

C      12.92      11.85       9.04
C      12.46      14.09      10.37
C      12.02      11.74       7.88
O      11.48      14.55       9.70
O      12.97      14.73      11.35
O      12.30      10.84       7.04
O      11.01      12.48       7.79
H      15.14      10.70      10.73
N      13.81      10.84       9.24
N      14.04      12.35      10.88
C      14.46      11.20      10.36
C      13.06      12.78      10.06
