12

C      15.64       3.45       1.22
C      17.23       4.81       0.81
C      17.70       3.52       0.68
C      17.80       6.16       0.65
C      19.06       2.95       0.43
O      17.09       7.13       0.98
O      18.98       6.36       0.19
O      19.99       3.65       0.07
O      19.12       1.70       0.63
N      16.68       2.67       0.96
N      15.91       4.74       1.14
H      14.80       3.12       1.45
