12

N      14.27       5.06       3.69
N      14.04       3.42       5.20
C      13.62       3.95       4.05
C      15.02       4.24       5.63
C      15.16       5.26       4.70
C      15.63       3.94       6.94
C      16.06       6.42       4.59
O      16.60       4.60       7.40
O      15.11       2.95       7.58
O      15.78       7.26       3.69
O      17.07       6.51       5.33
H      12.94       3.58       3.54
