12

O      15.01       7.17      13.33
O      13.11       7.94      14.11
O      12.10      10.65      14.23
O      12.97      12.61      13.68
N      15.42      11.64      13.34
N      16.19       9.56      13.16
H      17.30      11.19      12.86
C      16.46      10.86      13.08
C      14.86       9.49      13.49
C      14.39      10.79      13.62
C      14.29       8.15      13.65
C      13.04      11.35      13.87
