12

C      18.47      10.36      10.25
C      17.08      10.06       8.67
C      16.94       9.04       9.61
C      16.47      10.37       7.37
C      16.03       7.88       9.71
H      19.16      10.73      10.76
N      18.05      10.88       9.11
N      17.82       9.24      10.61
O      15.49       9.70       6.90
O      16.98      11.35       6.73
O      16.31       7.04      10.61
O      15.02       7.79       8.97
