12

C      12.45       8.38      10.86
C      10.85       7.96       9.49
C      10.38       7.83      10.79
C      10.28       7.80       8.15
C       9.02       7.58      11.35
H      13.29       8.60      11.19
N      11.41       8.11      11.64
N      12.17       8.29       9.56
O      11.00       8.13       7.17
O       9.10       7.34       7.94
O       8.09       7.22      10.65
O       8.96       7.78      12.61
