12

C      20.47      13.08      10.60
C      18.87      13.49      11.96
C      18.40      13.62      10.67
C      18.31      13.65      13.31
H      21.31      12.86      10.27
C      17.05      13.87      10.10
N      19.43      13.34       9.82
N      20.20      13.16      11.89
O      19.02      13.33      14.28
O      17.12      14.11      13.51
O      16.11      14.23      10.80
O      16.98      13.68       8.85
