12

C      24.48      10.60       8.38
C      22.88      11.96       7.96
C      22.42      10.67       7.83
C      22.32      13.31       7.80
C      21.06      10.10       7.58
O      23.03      14.28       8.13
O      21.14      13.51       7.34
O      20.12      10.80       7.22
O      20.99       8.85       7.78
H      25.32      10.27       8.60
N      23.44       9.82       8.11
N      24.21      11.89       8.29
