32

C       1.98      12.69       9.38
C       0.20      14.29       9.60
C       0.95      15.40      10.35
C       0.23      12.80       7.69
C      -0.53      13.68       6.67
C       3.18      12.25       8.56
C       4.79      12.99       6.94
C       3.96      12.93       5.66
C       4.92      13.83       9.21
C       5.58      15.19       8.96
N       1.04      13.56       8.65
N       4.03      13.38       8.13
H       1.46      11.79       9.77
H       2.32      13.26      10.26
H      -0.26      13.62      10.36
H      -0.64      14.76       9.08
H      -0.51      12.14       8.18
H       0.89      12.17       7.09
H       3.75      11.51       9.13
H       2.82      11.75       7.65
H       5.57      13.73       6.75
H       5.32      12.03       7.06
H       4.34      13.94      10.13
H       5.72      13.10       9.42
O       2.04      15.86       9.89
O       0.40      15.80      11.43
O      -0.21      14.91       6.59
O      -1.42      13.10       5.99
O       2.76      13.37       5.65
O       4.54      12.43       4.63
O       6.46      15.54       9.81
O       5.22      15.87       7.94
