32

C       6.58      19.07       3.00
C       4.79      19.30       4.58
C       5.53      20.05       5.69
C       4.82      17.39       3.09
C       4.06      16.36       3.93
C       7.78      18.24       2.58
C       9.37      16.61       3.34
C       8.53      15.33       3.28
C       9.51      18.89       4.17
C      10.16      18.66       5.54
H       6.08      19.46       2.09
H       6.92      19.94       3.57
H       4.32      20.04       3.91
H       3.96      18.77       5.06
H       4.10      17.90       2.42
H       5.49      16.80       2.45
H       8.37      18.81       1.84
H       7.44      17.33       2.07
H      10.15      16.42       4.10
H       9.91      16.71       2.39
H       8.92      19.81       4.27
H      10.31      19.10       3.44
N       5.63      18.34       3.86
N       8.62      17.81       3.71
O       6.65      19.62       6.12
O       4.96      21.10       6.13
O       4.34      16.26       5.17
O       3.20      15.67       3.30
O       7.32      15.34       3.69
O       9.10      14.30       2.81
O      11.07      19.48       5.86
O       9.77      17.67       6.25
