22

O       4.14       3.88      18.84
O       7.68       5.55      21.63
Cr       8.12       2.73      20.24
Cr       4.69       2.67      20.24
O       6.39       3.69      20.24
Cr       6.36       5.67      20.24
C       6.31       1.13      18.30
C       4.29       5.02      22.21
C       8.65       4.90      18.30
C       6.29       1.20      22.21
C       4.21       5.04      18.30
O       5.12       1.34      21.73
O       4.99       5.97      18.75
O       9.06       3.76      18.75
O       5.12       1.34      18.75
O       9.06       3.76      21.73
O       4.99       5.97      21.73
C       8.59       4.84      22.21
O       7.35       1.64      18.84
O       4.14       3.88      21.63
O       7.68       5.55      18.84
O       7.35       1.64      21.63
