18

C       9.16       4.15       1.15
Cd       6.61       5.29       1.22
C       3.81       4.37       0.96
Cd       3.41       7.08      -1.22
O       7.67       6.87       2.68
O       5.48       6.61       2.82
C       6.55       7.19       3.21
O       1.90       8.69      -1.75
O       6.21       6.90      -0.35
O       5.08       8.57      -1.27
C       0.86       8.22      -1.15
C       6.20       8.01      -0.96
O       2.34       5.49      -2.68
O       4.53       5.76      -2.82
C       3.46       5.17      -3.21
O       8.11       3.67       1.75
O       3.81       5.48       0.35
O       4.93       3.81       1.27
