48

H       7.48       2.54       1.70
H       5.68       0.98      -1.86
H       6.07      -1.50       1.64
H       9.67       1.51       5.38
H       8.95       1.69       3.01
H       5.68      -1.02       3.81
H       6.42      -1.19       6.18
H       7.64       6.42      -0.17
H       6.78       4.42       0.91
H       7.30       2.21      -2.78
H       8.20       4.26      -3.86
H       3.04      -2.09      -3.56
H       4.11      -0.22      -2.34
H       5.99      -3.07       0.32
H       4.96      -4.92      -0.95
O       9.48       0.87       7.72
O       7.95      -0.68       8.18
O       8.55       7.80      -2.14
O       9.35       6.47      -3.76
O       2.24      -4.51      -3.75
O       3.87      -5.87      -3.09
C       6.83       0.49       1.84
C       7.01       1.72       1.17
C       6.61       1.90      -0.17
C       5.98       0.85      -0.83
C       5.77      -0.39      -0.19
C       6.21      -0.55       1.14
C       8.51       0.08       7.34
C       8.09       0.14       5.92
C       8.80       0.95       5.02
C       8.39       1.06       3.70
C       7.26       0.35       3.24
C       6.56      -0.48       4.14
C       6.97      -0.58       5.47
C       8.66       6.68      -2.68
C       8.00       5.47      -2.09
C       7.57       5.51      -0.75
C       7.08       4.36      -0.14
C       6.98       3.15      -0.85
C       7.35       3.14      -2.22
C       7.87       4.28      -2.82
C       3.30      -4.72      -3.09
C       3.92      -3.61      -2.32
C       3.69      -2.28      -2.71
C       4.29      -1.24      -2.02
C       5.11      -1.49      -0.90
C       5.33      -2.84      -0.51
C       4.76      -3.88      -1.22
