600

H       4.34       3.53       4.38
H       4.34       1.82       8.09
H       2.87       3.47       2.52
H       2.81       1.86       9.90
H       2.58       4.69      12.86
H       2.97       5.53       9.56
H       5.49       6.33       5.64
H       7.92       3.53       8.13
H       7.96       1.87       4.39
H       9.40       3.46       9.98
H       9.50       1.94       2.60
H      20.88       1.77      31.63
H      24.49       1.75      27.90
H      20.89       3.43      27.89
H      24.49       3.46      31.62
H      25.96       1.80      26.04
H      19.36       1.84      33.44
H      26.01       3.41      33.43
H      19.43       3.36      26.03
H      19.15       4.75      36.33
H       9.69       4.84      46.78
H      26.24       0.58      36.37
H       9.29       5.60       2.97
H      25.82       5.47      26.42
H      19.54       5.50      33.05
H      30.44       5.75      25.15
H       6.75       6.33       6.89
H      23.32       6.25      30.37
H      22.06       6.24      29.12
H       3.04      32.81       2.90
H       4.46      31.71       4.44
H       4.40       6.65       8.03
H       4.44      15.20      28.02
H       3.05      16.31      26.45
H       4.39      20.03      27.90
H       4.36      18.36      31.65
H       3.04      22.10      33.08
H       4.47      23.19      31.53
H       2.95      19.96      26.02
H       2.86      18.44      33.49
H       0.89      13.90      21.45
H       1.96      12.53      19.85
H       1.94       9.20      16.29
H       0.85       7.81      14.72
H       1.59      11.50      17.45
H       1.60      10.23      18.69
H       0.81      30.42      45.02
H       1.89      29.03      43.44
H       1.91      25.73      39.86
H       0.84      24.38      38.24
H       1.56      28.01      41.04
H       1.53      26.73      42.27
H       5.53      32.04       6.84
H       5.50      15.55      30.42
H       5.55      22.82      29.14
H       7.86      31.70       8.00
H       9.27      32.81       9.57
H       7.84       6.69       4.50
H       6.80      32.06       5.60
H      24.40       6.58      27.97
H      20.98       6.60      31.51
H      19.57      32.70      26.45
H      20.99      31.61      28.01
H      24.41      31.63      31.56
H      25.85      32.75      33.08
H      22.06      31.96      30.41
H      23.32      31.96      29.16
H       9.28      16.30      33.12
H       7.84      15.20      31.58
H       7.97      20.03      31.65
H       7.97      18.32      27.93
H       7.90      23.15      27.99
H       9.33      22.02      26.46
H       6.77      15.53      29.19
H       6.81      22.83      30.38
H       9.44      19.96      33.50
H       9.47      18.36      26.11
H      19.52      21.97       9.64
H      20.93      23.07       8.09
H      24.33      23.08       4.53
H      25.75      21.98       2.98
H      24.39      18.25       4.40
H      20.81      18.25       8.15
H      24.42      19.93       8.13
H      25.77      16.20       9.57
H      24.32      15.10       8.04
H      20.78      19.93       4.43
H      20.89      15.11       4.50
H      19.45      16.21       2.98
H      21.99      22.74       5.68
H      23.26      22.72       6.92
H      23.24      15.45       5.65
H      21.98      15.44       6.89
H      19.37      18.31      10.03
H      25.90      18.32       2.57
H      19.23      19.87       2.64
H      25.94      19.86       9.94
H      28.04       7.84      21.50
H      26.95       9.21      19.92
H      26.92      12.53      16.37
H      27.98      13.92      14.78
H      31.75      12.66      16.18
H      31.78       9.06      19.99
H      30.13      12.66      20.00
H      30.11       9.07      16.20
H      27.29      10.23      17.51
H      27.30      11.50      18.75
H      31.67       7.67      21.95
H      31.60      14.14      14.27
H      30.22       7.60      14.28
H      30.27      14.05      21.96
H      30.08      25.63      39.68
H      30.06      29.20      43.51
H      31.69      25.61      43.54
H      27.92      24.36      44.96
H      26.86      25.73      43.36
H      31.73      29.20      39.73
H      26.90      29.08      39.82
H      27.99      30.48      38.26
H      27.25      26.76      40.96
H      27.23      28.03      42.20
H      30.18      30.60      45.47
H      30.22      24.25      37.71
H      31.62      30.69      37.82
H      31.54      24.22      45.51
H      11.56      13.96      38.07
H      10.47      12.62      39.67
H      10.44       9.31      43.23
H      11.49       7.90      44.80
H      15.27       9.20      43.45
H      15.30      12.78      39.60
H      13.63       9.21      39.59
H      17.37       7.82      38.24
H      18.46       9.17      39.84
H      13.70      12.94      43.34
H      18.53      12.52      43.31
H      17.51      14.07      44.77
H      10.81      11.62      42.09
H      10.83      10.34      40.86
H      18.07      10.21      42.22
H      18.17      11.47      40.98
H      15.18      14.14      37.61
H      15.11       7.68      45.34
H      13.99      14.82      44.89
H      13.76       7.69      37.69
H      17.31      24.37      14.60
H      18.39      25.75      16.18
H      18.40      29.05      19.77
H      17.33      30.39      21.39
H      13.58      29.17      19.92
H      13.56      25.59      16.10
H      15.19      29.18      16.08
H      11.43      30.44      14.66
H      10.36      29.07      16.27
H      15.23      25.57      19.87
H      10.40      25.73      19.81
H      11.49      24.32      21.36
H      18.05      26.77      18.58
H      18.03      28.05      17.35
H      10.75      28.04      18.66
H      10.73      26.77      17.42
H      13.68      24.18      14.15
H      13.71      30.53      21.90
H      15.12      24.09      21.77
H      15.04      30.58      14.12
H      31.40      32.50       1.60
H      13.94      16.02      34.40
H      14.91      22.28      10.95
H       9.74      21.19      23.16
H      26.18      16.98      12.84
H      31.49      15.98      25.13
H      30.35      22.30       1.60
H      13.84      32.49      10.95
H      14.97      32.37      25.13
H      31.44      22.44      34.48
H      15.11      15.50       1.72
C       5.22       3.49       7.16
C       5.23       4.91       7.15
C       3.54       4.96       8.93
C       3.50       3.55       8.98
C       4.34       2.85       8.07
C       5.24       1.88       5.32
C       5.27       0.46       5.33
C       4.36       2.51       4.40
C       3.54       1.79       3.49
C       3.59       0.38       3.53
C       2.71       2.85       9.89
C       2.76       2.48       2.55
C       1.32       0.99       1.17
C       1.63       0.50      46.95
C       1.68       4.92      12.45
C       1.24       4.32      11.26
C       4.39       5.63       8.03
C       6.14       2.69       6.25
C       6.12       5.69       6.26
C       7.02       4.93       5.36
C       7.05       3.51       5.34
C       7.94       2.89       4.42
C       8.78       3.62       3.53
C       8.72       5.02       3.59
C       7.04       0.46       7.14
C       7.05       1.88       7.16
C       8.71       0.38       8.94
C       8.74       1.79       9.00
C       7.92       2.51       8.10
C       9.51       2.48       9.95
C       9.59       2.93       2.61
C      23.60       1.80      30.68
C      23.58       0.38      30.68
C      21.80       0.36      28.88
C      21.78       1.78      28.86
C      20.90       2.41      27.92
C      20.08       1.69      27.02
C      25.27       0.32      32.45
C      25.32       1.73      32.50
C      24.48       2.44      31.60
C      23.60       3.41      28.85
C      23.58       4.83      28.85
C      21.80       4.84      30.65
C      21.78       3.42      30.67
C      20.11       4.93      32.43
C      20.06       3.52      32.49
C      20.90       2.79      31.60
C      24.48       2.77      27.92
C      25.30       3.49      27.01
C      25.26       4.90      27.06
C      22.69       2.60      29.76
C      19.26       2.83      33.42
C      26.12       2.43      33.42
C      26.08       2.79      26.07
C      19.31       2.37      26.07
C      27.53       4.28      24.70
C      27.22       4.77      23.41
C      18.24       4.96      35.94
C      17.79       4.33      34.76
C      10.93       0.98      11.35
C      10.59       0.48      12.63
C      10.61       5.05       0.09
C      11.06       4.42       1.27
C      27.15       0.35      35.97
C      27.59       0.95      34.78
C      17.87       0.87      24.69
C      18.16       0.41      23.38
C       7.86       5.67       4.49
C      20.96       5.57      31.52
C      24.41       5.55      27.97
C      22.69       5.61      29.75
C      29.56       5.53      24.68
C      15.66       5.43      35.01
C      13.20       5.50       0.98
C      32.11       5.43      11.51
C      29.28       6.04      23.40
C      16.12       6.07      36.20
C      32.56       6.03      12.71
C      12.73       6.13      46.87
C       4.44      32.73       4.44
C       5.28      21.43      30.67
C       5.26      20.01      30.69
C       4.37      19.38      31.62
C       3.55      20.11      32.52
C       3.60      21.52      32.46
C       4.45      22.16      31.54
C       5.26      16.95      28.89
C       5.25      18.37      28.87
C       4.43      16.22      28.01
C       3.60      16.88      27.08
C       3.57      18.29      27.02
C       4.39      19.01      27.93
C       2.82      18.98      26.06
C       2.76      19.43      33.46
C       0.30      13.38      20.80
C       0.94      12.56      19.86
C       0.91       9.17      16.29
C       0.95      10.87      18.07
C       0.88      25.70      39.85
C       0.87      29.07      43.43
C       0.90      27.38      41.65
C       1.40      17.48      24.67
C       1.71      16.98      23.38
C       1.35      20.93      34.87
C       1.67      21.39      36.17
C       6.16      32.69       6.23
C       6.16      19.18      29.78
C       6.14      16.18      29.80
C       6.18      22.19      29.76
C       7.87      32.73       8.01
C      20.13       0.28      27.08
C      20.97      32.63      28.00
C      24.42      32.66      31.55
C      22.69      32.60      29.78
C       7.08      19.99      28.87
C       7.07      21.40      28.87
C       7.91      22.12      27.99
C       8.76      21.46      27.09
C       8.80      20.05      27.05
C       7.96      19.34      27.95
C       7.07      18.37      30.70
C       7.04      16.95      30.70
C       7.95      19.00      31.63
C       8.77      18.28      32.53
C       8.72      16.87      32.49
C       7.87      16.22      31.58
C       9.58      19.34      26.12
C       9.55      18.97      33.47
C      21.69      18.28       5.37
C      21.71      16.86       5.38
C      23.50      16.85       7.17
C      23.52      18.27       7.18
C      24.41      18.90       8.10
C      25.24      18.18       9.00
C      25.19      16.77       8.94
C      24.34      16.12       8.04
C      20.87      16.13       4.50
C      20.02      16.78       3.60
C      19.96      18.19       3.56
C      20.80      18.91       4.45
C      21.70      19.90       7.20
C      21.73      21.32       7.20
C      23.50      21.32       5.39
C      23.51      19.90       5.36
C      24.34      22.05       4.52
C      25.18      21.40       3.60
C      25.22      20.00       3.53
C      24.39      19.27       4.43
C      20.83      19.27       8.13
C      20.01      19.99       9.05
C      20.07      21.40       9.00
C      20.91      22.05       8.09
C      22.60      19.09       6.28
C      22.62      22.09       6.30
C      22.61      16.09       6.27
C      26.00      19.31       2.59
C      19.15      18.88       2.64
C      19.25      19.30      10.00
C      26.05      18.87       9.92
C      31.75       9.96      17.18
C       0.17       9.99      17.18
C       0.19      11.75      18.98
C      31.77      11.77      19.00
C      31.15      12.64      19.96
C      31.90      13.44      20.87
C       0.27       8.34      15.37
C      31.86       8.28      15.31
C      31.13       9.09      16.23
C      30.13       9.95      19.02
C      28.71       9.98      19.02
C      28.69      11.74      17.22
C      30.11      11.77      17.19
C      27.94      12.56      16.35
C      28.57      13.39      15.41
C      29.97      13.44      15.33
C      30.72      12.64      16.24
C      30.76       9.08      19.96
C      30.03       8.28      20.89
C      28.62       8.35      20.84
C      27.97       9.17      19.91
C      30.94      10.86      18.10
C      27.93      10.86      18.12
C      30.61      14.21      14.34
C      31.20       7.52      14.34
C      30.69       7.54      21.87
C      31.25      14.18      21.87
C      30.08      28.31      40.70
C      28.66      28.29      40.70
C      28.64      26.51      42.49
C      30.06      26.49      42.52
C      30.67      25.62      43.48
C      29.92      24.82      44.40
C      28.52      24.88      44.31
C      27.89      25.70      43.37
C      27.92      29.11      39.82
C      28.57      29.94      38.90
C      29.98      29.99      38.84
C      30.71      29.19      39.76
C      31.71      28.30      42.54
C       0.13      28.27      42.54
C       0.13      26.51      40.73
C      31.71      26.49      40.70
C       0.25      24.90      38.89
C      31.84      24.85      38.81
C      31.10      25.63      39.74
C      31.09      29.18      43.48
C      31.82      29.98      44.41
C       0.23      29.90      44.36
C      30.89      27.40      41.62
C      27.88      27.40      41.59
C      31.20      24.13      37.80
C      30.63      30.76      37.88
C      31.17      30.73      45.39
C      30.56      24.09      45.41
C      15.31      11.89      42.43
C      16.73      11.79      42.45
C      16.69      10.03      40.66
C      15.27      10.06      40.61
C      14.65       9.20      39.66
C      15.39       8.36      38.76
C      16.79       8.38      38.86
C      17.43       9.18      39.80
C      17.50      12.59      43.31
C      16.90      13.50      44.18
C      15.50      13.64      44.22
C      14.72      12.84      43.33
C      13.66      11.90      40.59
C      12.24      11.87      40.59
C      12.22      10.12      42.40
C      13.64      10.10      42.44
C      11.46       9.29      43.26
C      12.09       8.45      44.19
C      13.49       8.41      44.28
C      14.25       9.22      43.39
C      14.28      12.76      39.64
C      13.55      13.54      38.69
C      12.14      13.46      38.74
C      11.50      12.66      39.69
C      14.47      10.99      41.52
C      11.46      10.99      41.48
C      17.48      10.87      41.58
C      14.12       7.63      45.26
C      14.95      14.63      45.05
C      14.20      14.27      37.69
C      14.75       7.60      37.78
C      13.58      26.48      18.91
C      12.16      26.51      18.91
C      12.14      28.28      17.12
C      13.56      28.30      17.09
C      14.17      29.17      16.13
C      13.42      29.97      15.22
C      12.02      29.91      15.30
C      11.39      29.10      16.25
C      11.42      25.69      19.80
C      12.07      24.85      20.71
C      13.48      24.79      20.76
C      14.21      25.60      19.84
C      15.21      26.49      17.07
C      16.63      26.52      17.08
C      16.63      28.28      18.89
C      15.21      28.30      18.91
C      17.38      29.08      19.78
C      16.75      29.88      20.73
C      15.34      29.94      20.80
C      14.60      29.16      19.87
C      14.59      25.61      16.13
C      15.32      24.81      15.21
C      16.73      24.89      15.26
C      17.37      25.71      16.19
C      14.39      27.39      18.00
C      17.40      27.40      17.97
C      11.38      27.40      18.03
C      14.69      30.66      21.82
C      14.14      24.01      21.72
C      14.66      24.06      14.22
C      14.06      30.70      14.21
C      32.28      32.73       1.13
C      32.58      32.23      46.92
C      11.01      17.48      34.83
C      13.06      16.24      34.87
C      12.78      15.75      36.16
C      10.71      16.99      36.13
C      17.82      20.80      11.38
C      15.79      22.06      11.41
C      16.08      22.56      12.70
C      18.13      21.28      12.68
C      12.77      22.52      23.33
C      10.65      21.42      23.57
C      11.07      20.81      24.77
C      13.21      21.91      24.54
C      29.22      15.69      12.72
C      27.10      16.77      12.44
C      27.54      17.39      11.26
C      29.68      16.31      11.53
C      32.37      16.21      24.66
C      32.66      15.70      23.38
C      27.43      20.81       1.21
C      29.46      22.08       1.15
C      29.14      22.58      46.94
C      27.09      21.31      47.00
C      12.95      32.71      11.40
C      12.64      32.21      12.68
C      29.27      32.25      36.25
C      29.72      32.85      35.05
C      15.84      32.61      24.66
C      16.11      32.14      23.36
C      32.32      22.20      34.93
C      32.62      22.67      36.23
C      17.77      17.38       1.20
C      15.90      15.89       1.21
C      16.11      15.56      46.92
C      18.02      17.04      46.91
N       2.79       0.96      46.28
N       1.92       2.06       1.67
N       1.84       3.25      10.76
N       0.83       5.74      13.14
N       0.14       0.61       1.73
N      28.70       4.66      25.26
N      26.06       4.32      22.73
N      26.92       3.20      25.19
N      16.51       4.57      34.38
N      18.39       3.25      34.27
N      12.11       0.59      10.81
N       9.43       0.94      13.29
N      10.34       2.06      10.85
N      12.35       4.65       1.63
N      10.46       3.35       1.77
N      28.87       0.71      34.40
N      26.99       2.02      34.28
N      16.70       0.48      25.25
N      19.31       0.89      22.70
N      18.47       1.95      25.19
N      32.96       4.57      10.87
N      28.12       5.61      22.81
N      17.39       5.79      36.61
N      14.33       5.62      34.57
N      14.54       5.68       1.41
N      30.78       5.63      11.06
N      11.46       5.87      46.48
N       0.73      32.66      46.34
N       0.81      16.13      22.79
N       2.86      17.45      22.70
N       1.99      18.56      25.16
N       0.77      22.22      36.79
N       2.82      20.91      36.83
N       1.94      19.86      34.35
N      31.65      31.53      46.27
N      30.22       6.73      22.76
N      12.19      17.11      34.28
N      11.62      16.17      36.73
N       9.55      17.44      36.81
N      10.40      18.55      34.34
N      13.72      15.06      36.80
N      16.64      21.18      10.83
N      17.23      22.13      13.28
N      19.28      20.82      13.35
N      18.41      19.72      10.89
N      15.14      23.26      13.34
N      11.51      22.23      22.90
N      12.35      21.05      25.17
N      14.53      22.10      25.00
N      13.63      23.22      22.60
N      10.46      19.75      25.27
N      27.95      15.96      13.13
N      28.82      17.16      10.89
N      31.01      16.13      11.09
N      30.06      14.98      13.47
N      26.92      18.46      10.77
N      15.29       6.81      36.92
N       0.22      17.10      25.24
N      31.73      14.99      22.75
N      28.62      21.20       1.75
N      27.97      22.16      46.38
N      25.92      20.85      46.34
N      26.84      19.73       1.71
N      30.05      23.29      46.28
N      11.48      32.63      13.24
N      13.56      31.50      13.33
N      13.56       6.85      46.12
N      28.01      32.54      36.66
N      31.05      32.66      34.60
N      30.11      31.54      36.99
N      17.26      32.58      22.77
N      15.18      31.45      22.71
N       0.17      21.33      34.32
N      31.69      23.35      36.89
N      31.72       6.74      13.46
N      16.70      16.81       1.81
N      17.17      16.16      46.31
N      19.11      17.62      46.21
N      18.33      18.45       1.74
N      15.30      14.70      46.30
O       2.83       0.65      45.06
O       3.80       0.44      46.81
O      26.03       4.64      21.52
O      25.05       4.84      23.26
O      13.97       4.81      33.68
O       9.37       0.62      14.51
O       8.42       0.43      12.75
O      14.90       4.88       2.31
O      31.41       0.45      33.69
O      19.33       0.59      21.47
O      20.33       0.36      23.20
O      30.43       4.83      10.16
O       2.90      17.12      21.49
O       3.88      16.94      23.24
O       2.86      21.20      38.06
O       3.84      21.43      36.31
O       9.51      17.12      38.02
O       8.54      16.92      36.28
O      19.32      21.14      14.57
O      20.30      21.34      12.83
O      14.87      21.30      25.91
O      14.63      23.25      25.50
O      31.36      16.94      10.19
O      31.13      14.98      10.60
O      14.23       6.77      34.06
O      25.86      21.18      45.13
O      24.91      21.37      46.90
O      14.66       6.83       1.90
O      31.16      31.50      34.12
O      30.69       6.78      10.58
O      19.11      17.37      44.98
O      20.18      17.15      46.66
