22

C      21.59      26.82       8.78
C      24.72      29.00       8.80
C      24.18      30.24       9.16
C      22.80      30.36       9.41
C      21.99      29.22       9.29
C      22.52      27.96       8.95
C      23.92      27.85       8.70
C      24.57      26.54       8.28
C      22.19      31.70       9.78
O      25.43      31.88      10.34
O      25.64      31.80       8.14
F      25.89      26.70       7.92
F      23.90      26.01       7.19
F      24.52      25.64       9.33
F      22.48      32.63       8.79
F      22.72      32.14      10.98
F      20.82      31.62       9.91
H      25.79      28.94       8.61
H      20.92      29.29       9.47
O      21.91      25.67       9.21
C      25.11      31.38       9.22
O      20.49      27.00       8.17
