22

F       6.80       9.52      30.83
F       7.16       9.96      28.67
F       7.28       7.84      29.43
F       0.22       9.51      28.77
F       0.39       7.27      29.05
F       0.67       8.18      27.03
O       5.22       8.91      25.64
C       5.59       8.42      26.75
O       6.66       7.75      26.84
C       4.19       8.93      30.27
C       2.82       8.76      30.01
C       2.37       8.52      28.69
C       3.32       8.43      27.67
C       4.69       8.57      27.92
C       5.14       8.83      29.23
C       6.61       9.04      29.55
C       0.89       8.37      28.38
H       4.50       9.11      31.29
H       2.99       8.23      26.66
O       1.48       9.96      31.56
O       1.42       7.75      31.62
C       1.87       8.83      31.13
