22

O       8.31       7.56       9.20
O       6.86       8.82      10.28
C       7.93       8.14      10.27
F       8.31      11.13      13.50
F       6.66       9.90      12.64
F       8.16      10.93      11.29
F      11.30       4.74      13.62
F      12.85       5.98      12.54
F      11.36       4.79      11.39
H       9.87       9.60      14.30
H       9.56       6.13      10.79
O      12.26       6.69      15.05
O      12.12       8.89      15.10
C       9.80       8.85      13.53
C      10.69       7.76      13.57
C      10.60       6.75      12.57
C       9.63       6.89      11.56
C       8.79       8.01      11.48
C       8.86       9.01      12.50
C       7.99      10.25      12.48
C      11.54       5.55      12.53
C      11.74       7.77      14.63
