22

O       8.68      23.61      26.05
O       7.22      22.43      24.91
C       8.29      22.50      25.60
O      12.39      17.53      26.83
H      11.77      19.95      27.49
H       8.14      20.28      24.14
O      12.29      17.55      24.63
F      11.07      21.67      28.94
F       9.05      22.49      28.46
F      10.89      23.30      27.41
F       9.58      16.73      24.52
F      10.39      18.02      22.85
F       8.21      18.05      23.35
C      10.96      20.02      26.77
C      10.83      19.02      25.80
C       9.76      19.08      24.88
C       8.92      20.21      24.89
C       9.11      21.27      25.79
C      10.10      21.14      26.80
C      10.28      22.16      27.91
C       9.48      17.96      23.89
C      11.88      17.96      25.75
