22

C      18.88      22.64      25.13
O      14.99      17.62      26.72
F      15.19      22.22      22.87
F      17.38      22.58      22.55
O      14.87      17.67      24.52
F      17.05      18.17      28.33
F      17.85      16.99      26.58
F      19.19      18.39      27.70
F      16.26      23.71      24.15
H      15.02      20.23      24.11
H      19.24      20.53      26.70
C      15.94      20.30      24.68
C      16.27      19.26      25.56
C      17.48      19.33      26.30
C      18.31      20.45      26.14
C      17.97      21.49      25.26
C      16.77      21.42      24.52
C      16.39      22.50      23.51
C      17.90      18.21      27.24
C      15.34      18.11      25.61
O      18.55      23.75      25.64
O      19.96      22.51      24.49
