22

C      19.01       7.91      22.45
F      19.75       5.94      18.63
F      19.93       5.67      20.84
F      20.73       7.54      19.85
F      13.54       8.45      20.45
F      14.47      10.43      19.90
F      14.46       9.73      22.03
C      17.43       7.33      19.05
C      16.20       7.99      19.22
C      15.91       8.62      20.46
C      16.87       8.57      21.48
C      18.10       7.92      21.30
C      18.39       7.30      20.07
C      19.72       6.60      19.84
C      14.58       9.32      20.71
H      17.62       6.85      18.10
H      16.67       9.04      22.44
O      14.90       6.82      17.62
O      14.71       9.02      17.69
O      18.63       7.36      23.53
O      20.13       8.51      22.39
C      15.22       7.94      18.12
