22

C      19.03      25.13      22.75
H      17.50      24.44      18.32
H      16.86      26.66      22.70
O      14.71      26.77      18.02
O      14.79      24.57      17.97
F      19.68      23.65      18.59
F      19.66      22.82      20.66
F      20.76      24.75      20.20
F      13.66      26.37      20.82
F      14.75      28.26      20.22
F      14.75      27.58      22.35
C      17.38      24.93      19.29
C      16.22      25.67      19.51
C      16.04      26.33      20.74
C      17.01      26.18      21.74
C      18.16      25.38      21.55
C      18.38      24.79      20.27
C      19.63      23.99      19.93
C      14.79      27.15      21.04
C      15.19      25.67      18.45
O      18.70      25.64      23.87
O      20.04      24.38      22.68
