22

C      18.85      25.23      10.45
F      17.40      21.84      12.80
F      19.40      22.65      12.22
F      17.73      22.56      10.71
F      17.09      29.17      12.86
F      16.74      28.42      14.94
F      15.05      28.46      13.44
C      16.74      24.39      13.49
C      16.26      25.66      13.87
C      16.75      26.81      13.19
C      17.61      26.62      12.08
C      18.04      25.35      11.68
C      17.62      24.21      12.42
C      18.04      22.80      12.03
C      16.40      28.23      13.61
H      16.40      23.52      14.04
H      17.96      27.47      11.51
O      14.74      26.78      15.41
O      14.76      24.58      15.39
O      19.89      24.50      10.44
O      18.47      25.83       9.39
C      15.21      25.69      14.95
