22

C      18.67      22.93       7.86
C      17.26      19.40       7.44
C      15.89      19.66       7.46
C      15.43      21.00       7.51
C      16.38      22.04       7.60
C      17.76      21.78       7.63
C      18.21      20.43       7.51
C      19.69      20.08       7.44
C      13.95      21.32       7.52
O      14.48      18.11       6.34
O      14.61      17.99       8.55
H      16.03      23.06       7.69
H      17.58      18.36       7.39
O      19.75      22.78       8.50
O      18.33      24.09       7.46
C      14.95      18.53       7.45
F      19.88      18.78       7.01
F      20.26      20.21       8.70
F      20.34      20.92       6.55
F      13.36      20.76       8.64
F      13.35      20.80       6.38
F      13.71      22.68       7.55
