22

O       6.35       7.91       6.13
O       4.91       9.22       7.17
C       5.28       8.60       6.12
H       3.00       6.80       2.48
H       4.26      10.79       5.10
O       1.35      10.02       1.09
O       1.36       7.83       1.13
F       3.96       5.15       3.80
F       4.28       5.91       5.87
F       5.94       6.03       4.34
F       1.23      11.55       3.17
F       3.01      11.86       1.80
F       3.12      12.45       3.94
C       3.26       7.68       3.04
C       2.72       8.93       2.66
C       3.11      10.10       3.40
C       3.97       9.94       4.51
C       4.46       8.68       4.90
C       4.11       7.53       4.15
C       4.58       6.14       4.54
C       2.61      11.50       3.07
C       1.79       8.94       1.59
