22

C      21.76       8.32      26.53
H      24.64       6.64      29.77
H      22.13      10.50      27.96
F      24.06       5.03      28.17
F      23.70       6.11      26.25
F      21.96       5.47      27.54
F      24.73      11.81      29.99
C      24.09       7.49      29.39
C      24.23       8.74      30.02
C      23.48       9.85      29.52
C      22.69       9.67      28.37
C      22.59       8.43      27.74
C      23.29       7.31      28.25
C      23.25       5.97      27.55
F      23.27      11.08      31.55
F      22.53      12.05      29.68
C      23.51      11.21      30.19
O      25.68       9.94      31.52
O      25.64       7.75      31.67
O      20.68       7.65      26.56
O      22.13       8.90      25.46
C      25.21       8.82      31.14
