22

O       7.20       8.30      22.62
C       8.27       7.63      22.69
O       8.65       7.14      23.79
H      11.77       5.88      20.06
H       8.08       9.14      20.52
F      11.21       4.43      21.82
F       9.16       4.78      22.62
C      10.94       6.57      20.16
C      10.76       7.55      19.17
C       9.67       8.45      19.27
C       8.87       8.41      20.42
C       9.10       7.49      21.46
C      10.12       6.51      21.30
C      10.36       5.40      22.31
C       9.34       9.44      18.17
F       9.42       8.83      16.93
F      10.22      10.51      18.22
F       8.05       9.94      18.31
O      12.31       6.59      17.64
F      10.93       5.93      23.46
O      12.13       8.78      17.67
C      11.77       7.64      18.09
