22

C      21.64      24.10      26.83
F      24.17      20.60      27.79
F      24.08      22.06      26.09
F      22.18      21.20      26.97
F      24.05      26.90      31.14
F      23.04      25.40      32.50
F      21.83      26.63      31.08
H      24.98      22.05      29.46
H      21.70      25.72      28.91
O      25.64      22.76      31.86
O      25.68      24.96      31.83
C      24.24      22.84      29.35
C      24.21      23.87      30.30
C      23.23      24.89      30.18
C      22.40      24.90      29.05
C      22.48      23.91      28.05
C      23.38      22.82      28.23
C      23.45      21.66      27.26
C      23.04      25.96      31.24
C      25.22      23.86      31.39
O      20.59      24.80      26.91
O      22.00      23.62      25.71
