22

O       8.33      25.65       9.41
O       6.82      24.58      10.60
C       7.94      25.18      10.53
H       9.57      24.11      14.85
H       9.98      26.84      10.75
F       7.69      22.85      14.32
F       7.61      22.58      12.11
F       6.35      24.17      13.12
F      13.21      26.60      12.63
F      11.98      28.36      13.34
F      12.06      27.83      11.17
C       9.65      24.70      13.94
C      10.72      25.59      13.83
C      10.85      26.38      12.66
C       9.89      26.24      11.64
C       8.82      25.32      11.73
C       8.69      24.54      12.92
C       7.57      23.53      13.12
C      12.03      27.30      12.45
O      12.13      26.73      15.39
O      12.17      24.52      15.38
C      11.72      25.62      14.92
