22

C       3.74      30.42       8.48
C       2.72      30.38       9.45
C       2.71      29.30      10.38
C       3.63      28.25      10.20
C       4.62      28.28       9.20
C       4.76      29.46       8.42
C       5.99      29.75       7.58
C       1.67      29.18      11.49
O       6.45      27.04       8.26
O       4.95      25.92       9.40
C       5.39      27.02       8.95
O       1.20      31.81      10.49
O       1.43      31.91       8.30
H       3.77      31.25       7.79
H       3.57      27.37      10.84
C       1.75      31.40       9.42
F       6.00      31.05       7.11
F       6.04      28.91       6.49
F       7.13      29.58       8.35
F       0.39      29.27      10.96
F       1.86      30.19      12.41
F       1.76      27.98      12.16
