43

Co      11.44       0.00       0.00
Co      12.33       2.38       5.36
Co      12.35       3.19      -5.35
C      15.18       2.52      -6.26
C      11.37      -1.43      -2.49
C       8.59       1.13      -0.25
C      14.66       0.90       4.00
C      11.53       1.45       2.50
C      11.57      -0.04      -2.88
C      10.92      -0.32       5.50
C      11.08      -0.66       4.07
C       9.99       3.86       6.72
C      10.60       4.76       4.68
C      15.04       2.52      -3.96
C      11.81       0.66      -4.07
C      11.32       0.03       2.88
C      14.30      -1.13       0.25
C       9.53       3.85      -4.46
C       8.59      -1.15       0.05
C      11.97       0.32      -5.49
C      14.06      -0.01       6.04
C       9.67       3.85      -6.76
C      14.30       1.15      -0.05
N      11.94       1.97      -3.72
N       9.29      -0.00      -0.11
N      13.60       0.00       0.11
N      11.10      -2.11       2.39
N      14.48       2.81      -5.15
N      10.94      -1.98       3.73
N      10.83       3.87       5.67
N      11.57       0.89      -1.88
N      13.84       0.89       5.07
N      11.32      -0.90       1.89
N      11.79       2.11      -2.40
N      10.24       3.58      -5.59
O      11.13      -2.35      -3.38
O      11.48       1.68       1.23
O      11.41      -1.68      -1.24
O      12.46       5.09      -4.45
O      11.01       0.88       5.91
O      12.25       1.29      -6.28
O      11.75       2.35       3.35
O      11.87      -0.89      -5.89
