156

Cr      -3.17       8.90      13.91
Cr       9.21       2.06       4.64
Cr       3.58       8.26      13.91
Cr       2.46       2.69       4.64
Cr       5.82       5.63      13.91
Cr       0.22       5.32       4.64
H      -0.59       8.49       8.75
H       6.90       2.74       9.52
H       6.84       2.54      17.90
H       1.52       9.84       1.79
H      -0.01       6.41       7.69
H       6.08       4.61      10.81
H       6.15       4.49      16.72
H       2.61       7.97       2.84
H       7.81       5.74       1.26
H      -1.66       4.57      17.00
H      -1.27       4.86      10.73
H       7.58       5.66       7.98
H       5.08      10.92       1.32
H      -3.20      10.29      17.49
H      -3.18      10.50      10.42
H       9.28       0.59       8.19
H      -2.10      10.51       1.14
H       4.00      10.83      17.73
H       8.25       0.51      10.42
H      -2.22      10.42       8.14
H      -0.72      10.91      11.43
H       7.09       0.13       7.10
H       7.30       0.44       2.28
H       3.61       0.44      17.57
H       4.49       8.62       9.89
H       3.30       9.83       9.22
H       3.69       8.37       8.32
H       3.33       0.89       8.91
H       1.98       2.06       9.17
H       3.35       2.05      10.26
H       2.00       3.00       1.20
H       3.01       1.55       0.92
H       2.75       2.72      18.13
H       0.13       8.00      16.79
H       1.31       8.23      15.55
H       1.05       6.57      16.31
H       9.00       2.45      18.13
H       0.24       3.53      18.26
H      -0.06       2.26       0.94
H      -1.19       7.67       0.51
H      -1.75       8.74      17.76
H      -2.98       7.84       0.21
H       6.15       6.94       9.33
H       6.68       8.37      10.24
H      -2.66       7.91       8.72
H       0.31       3.87       9.49
H      -0.93       2.58       9.66
H       0.21       2.64       8.23
C       4.92      10.19      12.02
C       1.12       0.77       6.53
C       1.13       0.74       2.77
C       4.92      10.08      15.87
C       1.85       6.10       8.81
C       4.19       4.81       9.73
C       4.55       5.08      18.12
C       2.97       6.88       0.99
C      -1.93       6.63      17.30
C      -1.33       3.95       1.13
C      -1.36       4.02       8.13
C      -2.24       6.68      10.48
C      -1.76       5.38      17.72
C      -1.86       5.05       0.61
C       8.21       5.07       8.64
C      -1.77       5.52      10.03
C       4.94      10.58      17.25
C      -3.04      10.82       1.57
C      -3.10      10.93       7.78
C       9.16       0.05      10.80
C       6.06      10.48      17.97
C       6.03      10.67       0.88
C      -0.02       0.14       8.57
C      -4.11      10.87      10.01
C       4.02       6.17      11.83
C       2.02       4.77       6.71
C       2.57       5.17       2.76
C       4.05       6.20      15.96
C      -2.31       6.86      11.91
C      -1.33       3.84       6.68
C      -1.30       3.82       2.59
C      -2.29       6.86      15.90
C       2.37       4.97       8.13
C       3.67       5.93      10.42
C       3.85       6.11      17.41
C       3.27       5.62       1.55
C       0.67       6.79       8.44
C       5.44       4.22      10.05
C       5.60       4.26      17.60
C       2.52       7.97       1.77
C       0.31       7.99       9.04
C       5.93       3.15       9.30
C       6.01       3.12      18.28
C       1.94       9.07       1.16
C       1.19       8.60       9.93
C       5.13       2.59       8.31
C       5.30       2.70       0.86
C       1.79       9.13      18.32
C       2.47       8.03      10.06
C       3.77       2.92       8.34
C       4.11       3.35       1.13
C       2.14       8.01      17.56
C       2.59       6.65       9.86
C       3.46       4.25       8.69
C       4.04       4.71       0.81
C       2.99       7.01      18.13
C       0.79       9.84      10.63
C       5.61       1.45       7.49
C       5.78       1.62       1.74
C       1.10      10.28      17.69
C       3.55       8.77       9.35
C       3.06       1.92       9.20
C       2.89       2.61       0.69
C       1.12       7.66      16.48
C      -0.55       2.98       0.29
C      -1.97       7.79      18.27
C       7.04       7.53       9.64
C      -0.39       3.23       8.94
O      -2.05       8.02      12.39
O       8.09       2.93       6.15
O       8.09       2.93       3.12
O      -2.04       8.02      15.42
O       6.06       9.86      12.51
O      -0.02       1.09       6.04
O      -0.02       1.09       3.23
O       6.06       9.86      15.31
O       3.80       9.67      12.41
O       2.25       1.28       6.13
O       2.25       1.28       3.14
O       3.80       9.67      15.40
O       3.21       6.94      12.52
O       2.84       4.02       6.02
O       2.84       4.01       3.25
O       3.21       6.94      15.29
O       4.48       5.10      12.41
O       1.57       5.86       6.13
O       1.57       5.85       3.14
O       4.48       5.10      15.40
O       7.16       5.99      12.51
O      -1.12       4.96       6.04
O      -1.12       4.96       3.24
O       7.16       5.99      15.31
O       5.48       7.60      13.91
O       0.57       3.35       4.64
O       1.63      10.62      11.04
O      -0.57      10.09      10.85
O       4.92       1.00       6.59
O       6.87       0.89       7.74
O       5.12       1.29       2.71
O       7.02       1.03       1.50
O       1.55      10.76      16.66
O      -0.10      10.73      18.20
